data_dddd_tmp_new
_audit_creation_method         'generated by data2config v5.5c'

_cell_length_a                  54.30700
_cell_length_b                  54.30700
_cell_length_c                  54.30700
_cell_angle_alpha               90.00000
_cell_angle_beta                90.00000
_cell_angle_gamma               90.00000

loop_
_symmetry_equiv_pos_as_xyz
'+x,+y,+z'

loop_
_atom_site_type_symbol
_atom_site_label
_atom_site_fract_x
_atom_site_fract_y
_atom_site_fract_z
H     H1        0.0000    0.0000    0.0000
Li    Li2        0.0000    0.0500    0.0500
C     C3        0.0500    0.0500    0.0000
