data_test_3_tmp_new_new_new_new
_audit_creation_method         'generated by data2config v5.5c'

_cell_length_a                  27.15350
_cell_length_b                  27.15350
_cell_length_c                  27.15350
_cell_angle_alpha               90.00000
_cell_angle_beta                90.00000
_cell_angle_gamma               90.00000

loop_
_symmetry_equiv_pos_as_xyz
'+x,+y,+z'

loop_
_atom_site_type_symbol
_atom_site_label
_atom_site_fract_x
_atom_site_fract_y
_atom_site_fract_z
Si     Si1        0.0000    0.0000    0.0000
Si     Si2        0.0000    0.0000    0.2000
Si     Si3        0.0000    0.0000    0.4000
Si     Si4        0.0000    0.0000    0.6000
Si     Si5        0.0000    0.0000    0.8000
Si     Si6        0.0000    0.2000    0.0000
Si     Si7        0.0000    0.2000    0.2000
Si     Si8        0.0000    0.2000    0.4000
Si     Si9        0.0000    0.2000    0.6000
Si     Si10        0.0000    0.2000    0.8000
Si     Si11        0.0000    0.4000    0.0000
Si     Si12        0.0000    0.4000    0.2000
Si     Si13        0.0000    0.4000    0.4000
Si     Si14        0.0000    0.4000    0.6000
Si     Si15        0.0000    0.4000    0.8000
Si     Si16        0.0000    0.6000    0.0000
Si     Si17        0.0000    0.6000    0.2000
Si     Si18        0.0000    0.6000    0.4000
Si     Si19        0.0000    0.6000    0.6000
Si     Si20        0.0000    0.6000    0.8000
Si     Si21        0.0000    0.8000    0.0000
Si     Si22        0.0000    0.8000    0.2000
Si     Si23        0.0000    0.8000    0.4000
Si     Si24        0.0000    0.8000    0.6000
Si     Si25        0.0000    0.8000    0.8000
Si     Si26        0.2000    0.0000    0.0000
Si     Si27        0.2000    0.0000    0.2000
Si     Si28        0.2000    0.0000    0.4000
Si     Si29        0.2000    0.0000    0.6000
Si     Si30        0.2000    0.0000    0.8000
Si     Si31        0.2000    0.2000    0.0000
Si     Si32        0.2000    0.2000    0.2000
Si     Si33        0.2000    0.2000    0.4000
Si     Si34        0.2000    0.2000    0.6000
Si     Si35        0.2000    0.2000    0.8000
Si     Si36        0.2000    0.4000    0.0000
Si     Si37        0.2000    0.4000    0.2000
Si     Si38        0.2000    0.4000    0.4000
Si     Si39        0.2000    0.4000    0.6000
Si     Si40        0.2000    0.4000    0.8000
Si     Si41        0.2000    0.6000    0.0000
Si     Si42        0.2000    0.6000    0.2000
Si     Si43        0.2000    0.6000    0.4000
Si     Si44        0.2000    0.6000    0.6000
Si     Si45        0.2000    0.6000    0.8000
Si     Si46        0.2000    0.8000    0.0000
Si     Si47        0.2000    0.8000    0.2000
Si     Si48        0.2000    0.8000    0.4000
Si     Si49        0.2000    0.8000    0.6000
Si     Si50        0.2000    0.8000    0.8000
Si     Si51        0.4000    0.0000    0.0000
Si     Si52        0.4000    0.0000    0.2000
Si     Si53        0.4000    0.0000    0.4000
Si     Si54        0.4000    0.0000    0.6000
Si     Si55        0.4000    0.0000    0.8000
Si     Si56        0.4000    0.2000    0.0000
Si     Si57        0.4000    0.2000    0.2000
Si     Si58        0.4000    0.2000    0.4000
Si     Si59        0.4000    0.2000    0.6000
Si     Si60        0.4000    0.2000    0.8000
Si     Si61        0.4000    0.4000    0.0000
Si     Si62        0.4000    0.4000    0.2000
Si     Si63        0.4000    0.4000    0.4000
Si     Si64        0.4000    0.4000    0.6000
Si     Si65        0.4000    0.4000    0.8000
Si     Si66        0.4000    0.6000    0.0000
Si     Si67        0.4000    0.6000    0.2000
Si     Si68        0.4000    0.6000    0.4000
Si     Si69        0.4000    0.6000    0.6000
Si     Si70        0.4000    0.6000    0.8000
Si     Si71        0.4000    0.8000    0.0000
Si     Si72        0.4000    0.8000    0.2000
Si     Si73        0.4000    0.8000    0.4000
Si     Si74        0.4000    0.8000    0.6000
Si     Si75        0.4000    0.8000    0.8000
Si     Si76        0.6000    0.0000    0.0000
Si     Si77        0.6000    0.0000    0.2000
Si     Si78        0.6000    0.0000    0.4000
Si     Si79        0.6000    0.0000    0.6000
Si     Si80        0.6000    0.0000    0.8000
Si     Si81        0.6000    0.2000    0.0000
Si     Si82        0.6000    0.2000    0.2000
Si     Si83        0.6000    0.2000    0.4000
Si     Si84        0.6000    0.2000    0.6000
Si     Si85        0.6000    0.2000    0.8000
Si     Si86        0.6000    0.4000    0.0000
Si     Si87        0.6000    0.4000    0.2000
Si     Si88        0.6000    0.4000    0.4000
Si     Si89        0.6000    0.4000    0.6000
Si     Si90        0.6000    0.4000    0.8000
Si     Si91        0.6000    0.6000    0.0000
Si     Si92        0.6000    0.6000    0.2000
Si     Si93        0.6000    0.6000    0.4000
Si     Si94        0.6000    0.6000    0.6000
Si     Si95        0.6000    0.6000    0.8000
Si     Si96        0.6000    0.8000    0.0000
Si     Si97        0.6000    0.8000    0.2000
Si     Si98        0.6000    0.8000    0.4000
Si     Si99        0.6000    0.8000    0.6000
Si     Si100        0.6000    0.8000    0.8000
Si     Si101        0.8000    0.0000    0.0000
Si     Si102        0.8000    0.0000    0.2000
Si     Si103        0.8000    0.0000    0.4000
Si     Si104        0.8000    0.0000    0.6000
Si     Si105        0.8000    0.0000    0.8000
Si     Si106        0.8000    0.2000    0.0000
Si     Si107        0.8000    0.2000    0.2000
Si     Si108        0.8000    0.2000    0.4000
Si     Si109        0.8000    0.2000    0.6000
Si     Si110        0.8000    0.2000    0.8000
Si     Si111        0.8000    0.4000    0.0000
Si     Si112        0.8000    0.4000    0.2000
Si     Si113        0.8000    0.4000    0.4000
Si     Si114        0.8000    0.4000    0.6000
Si     Si115        0.8000    0.4000    0.8000
Si     Si116        0.8000    0.6000    0.0000
Si     Si117        0.8000    0.6000    0.2000
Si     Si118        0.8000    0.6000    0.4000
Si     Si119        0.8000    0.6000    0.6000
Si     Si120        0.8000    0.6000    0.8000
Si     Si121        0.8000    0.8000    0.0000
Si     Si122        0.8000    0.8000    0.2000
Si     Si123        0.8000    0.8000    0.4000
Si     Si124        0.8000    0.8000    0.6000
Si     Si125        0.8000    0.8000    0.8000
Sil    Sil126        0.0000    0.1000    0.3000
Sil    Sil127        0.0000    0.1000    0.5000
Sil    Sil128        0.0000    0.3000    0.1000
Sil    Sil129        0.0000    0.5000    0.1000
Sil    Sil130        0.0000    0.5000    0.3000
Sil    Sil131        0.0000    0.5000    0.5000
Sil    Sil132        0.0000    0.5000    0.7000
Sil    Sil133        0.0000    0.5000    0.9000
Sil    Sil134        0.0000    0.7000    0.1000
Sil    Sil135        0.0000    0.7000    0.5000
Sil    Sil136        0.0000    0.7000    0.9000
Sil    Sil137        0.0000    0.9000    0.3000
Sil    Sil138        0.0000    0.9000    0.5000
Sil    Sil139        0.0000    0.9000    0.9000
Sil    Sil140        0.2000    0.1000    0.1000
Sil    Sil141        0.2000    0.1000    0.3000
Sil    Sil142        0.2000    0.1000    0.5000
Sil    Sil143        0.2000    0.1000    0.7000
Sil    Sil144        0.2000    0.1000    0.9000
Sil    Sil145        0.2000    0.3000    0.5000
Sil    Sil146        0.2000    0.3000    0.7000
Sil    Sil147        0.2000    0.3000    0.9000
Sil    Sil148        0.2000    0.5000    0.3000
Sil    Sil149        0.2000    0.5000    0.5000
Sil    Sil150        0.2000    0.5000    0.9000
Sil    Sil151        0.2000    0.7000    0.1000
Sil    Sil152        0.2000    0.7000    0.9000
Sil    Sil153        0.2000    0.9000    0.3000
Sil    Sil154        0.2000    0.9000    0.5000
Sil    Sil155        0.4000    0.1000    0.3000
Sil    Sil156        0.4000    0.1000    0.7000
Sil    Sil157        0.4000    0.1000    0.9000
Sil    Sil158        0.4000    0.3000    0.3000
Sil    Sil159        0.4000    0.3000    0.5000
Sil    Sil160        0.4000    0.3000    0.7000
Sil    Sil161        0.4000    0.5000    0.1000
Sil    Sil162        0.4000    0.5000    0.5000
Sil    Sil163        0.4000    0.5000    0.7000
Sil    Sil164        0.4000    0.5000    0.9000
Sil    Sil165        0.4000    0.7000    0.1000
Sil    Sil166        0.4000    0.7000    0.5000
Sil    Sil167        0.4000    0.7000    0.7000
Sil    Sil168        0.4000    0.9000    0.1000
Sil    Sil169        0.4000    0.9000    0.3000
Sil    Sil170        0.4000    0.9000    0.5000
Sil    Sil171        0.4000    0.9000    0.7000
Sil    Sil172        0.6000    0.1000    0.1000
Sil    Sil173        0.6000    0.1000    0.7000
Sil    Sil174        0.6000    0.3000    0.5000
Sil    Sil175        0.6000    0.3000    0.9000
Sil    Sil176        0.6000    0.5000    0.1000
Sil    Sil177        0.6000    0.5000    0.5000
Sil    Sil178        0.6000    0.5000    0.9000
Sil    Sil179        0.6000    0.7000    0.1000
Sil    Sil180        0.6000    0.7000    0.3000
Sil    Sil181        0.6000    0.7000    0.5000
Sil    Sil182        0.6000    0.7000    0.9000
Sil    Sil183        0.6000    0.9000    0.3000
Sil    Sil184        0.6000    0.9000    0.5000
Sil    Sil185        0.6000    0.9000    0.7000
Sil    Sil186        0.8000    0.1000    0.7000
Sil    Sil187        0.8000    0.1000    0.9000
Sil    Sil188        0.8000    0.3000    0.5000
Sil    Sil189        0.8000    0.5000    0.1000
Sil    Sil190        0.8000    0.5000    0.7000
Sil    Sil191        0.8000    0.7000    0.7000
Sil    Sil192        0.8000    0.9000    0.3000
Sil    Sil193        0.8000    0.9000    0.7000
Si     Si194        0.1000    0.1000    0.0000
Si     Si195        0.1000    0.1000    0.2000
Si     Si196        0.1000    0.1000    0.6000
Si     Si197        0.1000    0.3000    0.0000
Si     Si198        0.1000    0.3000    0.2000
Si     Si199        0.1000    0.3000    0.6000
Si     Si200        0.1000    0.5000    0.0000
Si     Si201        0.1000    0.5000    0.2000
Si     Si202        0.1000    0.5000    0.4000
Si     Si203        0.1000    0.7000    0.2000
Si     Si204        0.1000    0.7000    0.4000
Si     Si205        0.1000    0.7000    0.8000
Si     Si206        0.1000    0.9000    0.0000
Si     Si207        0.1000    0.9000    0.2000
Si     Si208        0.1000    0.9000    0.4000
Si     Si209        0.1000    0.9000    0.6000
Si     Si210        0.3000    0.5000    0.0000
Si     Si211        0.3000    0.5000    0.6000
Si     Si212        0.3000    0.7000    0.0000
Si     Si213        0.3000    0.7000    0.2000
Si     Si214        0.3000    0.7000    0.4000
Si     Si215        0.3000    0.9000    0.4000
Si     Si216        0.5000    0.1000    0.2000
Si     Si217        0.5000    0.1000    0.4000
Si     Si218        0.5000    0.1000    0.6000
Si     Si219        0.5000    0.3000    0.2000
Si     Si220        0.5000    0.3000    0.4000
Si     Si221        0.5000    0.3000    0.6000
Si     Si222        0.5000    0.5000    0.2000
Si     Si223        0.5000    0.5000    0.4000
Si     Si224        0.5000    0.5000    0.8000
Si     Si225        0.5000    0.7000    0.2000
Si     Si226        0.5000    0.9000    0.0000
Si     Si227        0.5000    0.9000    0.4000
Si     Si228        0.5000    0.9000    0.6000
Si     Si229        0.5000    0.9000    0.8000
Si     Si230        0.7000    0.1000    0.2000
Si     Si231        0.7000    0.3000    0.0000
Si     Si232        0.7000    0.3000    0.2000
Si     Si233        0.7000    0.3000    0.8000
Si     Si234        0.7000    0.5000    0.0000
Si     Si235        0.7000    0.5000    0.2000
Si     Si236        0.7000    0.5000    0.4000
Si     Si237        0.7000    0.5000    0.8000
Si     Si238        0.7000    0.7000    0.0000
Si     Si239        0.7000    0.7000    0.6000
Si     Si240        0.7000    0.7000    0.8000
Si     Si241        0.7000    0.9000    0.0000
Si     Si242        0.7000    0.9000    0.2000
Si     Si243        0.9000    0.1000    0.2000
Si     Si244        0.9000    0.1000    0.4000
Si     Si245        0.9000    0.1000    0.6000
Si     Si246        0.9000    0.3000    0.0000
Si     Si247        0.9000    0.3000    0.4000
Si     Si248        0.9000    0.3000    0.8000
Si     Si249        0.9000    0.5000    0.0000
Si     Si250        0.9000    0.5000    0.4000
Si     Si251        0.9000    0.7000    0.0000
Si     Si252        0.9000    0.7000    0.4000
Si     Si253        0.9000    0.7000    0.6000
Si     Si254        0.9000    0.9000    0.6000
Si     Si255        0.9000    0.9000    0.8000
Ge    Ge256        0.0000    0.1000    0.7000
Ge    Ge257        0.0000    0.1000    0.9000
Ge    Ge258        0.0000    0.3000    0.3000
Ge    Ge259        0.0000    0.3000    0.5000
Ge    Ge260        0.0000    0.3000    0.7000
Ge    Ge261        0.0000    0.7000    0.3000
Ge    Ge262        0.0000    0.7000    0.7000
Ge    Ge263        0.0000    0.9000    0.1000
Ge    Ge264        0.0000    0.9000    0.7000
Ge    Ge265        0.2000    0.3000    0.1000
Ge    Ge266        0.2000    0.3000    0.3000
Ge    Ge267        0.2000    0.5000    0.1000
Ge    Ge268        0.2000    0.7000    0.3000
Ge    Ge269        0.2000    0.7000    0.5000
Ge    Ge270        0.2000    0.9000    0.7000
Ge    Ge271        0.2000    0.9000    0.9000
Ge    Ge272        0.4000    0.1000    0.1000
Ge    Ge273        0.4000    0.1000    0.5000
Ge    Ge274        0.4000    0.3000    0.1000
Ge    Ge275        0.4000    0.3000    0.9000
Ge    Ge276        0.4000    0.5000    0.3000
Ge    Ge277        0.4000    0.7000    0.3000
Ge    Ge278        0.4000    0.7000    0.9000
Ge    Ge279        0.4000    0.9000    0.9000
Ge    Ge280        0.6000    0.1000    0.3000
Ge    Ge281        0.6000    0.1000    0.5000
Ge    Ge282        0.6000    0.1000    0.9000
Ge    Ge283        0.6000    0.3000    0.1000
Ge    Ge284        0.6000    0.3000    0.3000
Ge    Ge285        0.6000    0.3000    0.7000
Ge    Ge286        0.6000    0.5000    0.3000
Ge    Ge287        0.6000    0.5000    0.7000
Ge    Ge288        0.6000    0.7000    0.7000
Ge    Ge289        0.6000    0.9000    0.1000
Ge    Ge290        0.6000    0.9000    0.9000
Ge    Ge291        0.8000    0.1000    0.1000
Ge    Ge292        0.8000    0.1000    0.5000
Ge    Ge293        0.8000    0.3000    0.1000
Ge    Ge294        0.8000    0.3000    0.3000
Ge    Ge295        0.8000    0.3000    0.9000
Ge    Ge296        0.8000    0.5000    0.3000
Ge    Ge297        0.8000    0.5000    0.5000
Ge    Ge298        0.8000    0.5000    0.9000
Ge    Ge299        0.8000    0.7000    0.1000
Ge    Ge300        0.8000    0.7000    0.3000
Ge    Ge301        0.8000    0.7000    0.5000
Ge    Ge302        0.8000    0.7000    0.9000
Ge    Ge303        0.8000    0.9000    0.1000
Ge    Ge304        0.8000    0.9000    0.5000
Ge    Ge305        0.8000    0.9000    0.9000
Va     Va306        0.0000    0.1000    0.1000
Va     Va307        0.0000    0.3000    0.9000
Va     Va308        0.2000    0.5000    0.7000
Va     Va309        0.2000    0.7000    0.7000
Va     Va310        0.2000    0.9000    0.1000
Va     Va311        0.8000    0.1000    0.3000
Va     Va312        0.8000    0.3000    0.7000
Fe     Fe313        0.1500    0.0500    0.1500
Fe     Fe314        0.1500    0.0500    0.3500
Fe     Fe315        0.1500    0.0500    0.5500
Fe     Fe316        0.1500    0.0500    0.9500
Fe     Fe317        0.1500    0.2500    0.5500
Fe     Fe318        0.1500    0.2500    0.7500
Fe     Fe319        0.1500    0.4500    0.1500
Fe     Fe320        0.1500    0.4500    0.3500
Fe     Fe321        0.1500    0.4500    0.7500
Fe     Fe322        0.1500    0.4500    0.9500
Fe     Fe323        0.1500    0.8500    0.1500
Fe     Fe324        0.1500    0.8500    0.5500
Fe     Fe325        0.1500    0.8500    0.9500
Fe     Fe326        0.3500    0.0500    0.3500
Fe     Fe327        0.3500    0.0500    0.7500
Fe     Fe328        0.3500    0.2500    0.1500
Fe     Fe329        0.3500    0.2500    0.7500
Fe     Fe330        0.3500    0.2500    0.9500
Fe     Fe331        0.3500    0.4500    0.5500
Fe     Fe332        0.3500    0.6500    0.1500
Fe     Fe333        0.3500    0.6500    0.3500
Fe     Fe334        0.3500    0.6500    0.5500
Fe     Fe335        0.3500    0.6500    0.7500
Fe     Fe336        0.3500    0.6500    0.9500
Fe     Fe337        0.3500    0.8500    0.1500
Fe     Fe338        0.3500    0.8500    0.5500
Fe     Fe339        0.3500    0.8500    0.9500
Fe     Fe340        0.5500    0.0500    0.3500
Fe     Fe341        0.5500    0.0500    0.5500
Fe     Fe342        0.5500    0.0500    0.7500
Fe     Fe343        0.5500    0.0500    0.9500
Fe     Fe344        0.5500    0.2500    0.5500
Fe     Fe345        0.5500    0.2500    0.7500
Fe     Fe346        0.5500    0.4500    0.3500
Fe     Fe347        0.5500    0.4500    0.7500
Fe     Fe348        0.5500    0.8500    0.1500
Fe     Fe349        0.5500    0.8500    0.3500
Fe     Fe350        0.5500    0.8500    0.5500
Fe     Fe351        0.5500    0.8500    0.9500
Fe     Fe352        0.7500    0.0500    0.3500
Fe     Fe353        0.7500    0.0500    0.9500
Fe     Fe354        0.7500    0.2500    0.1500
Fe     Fe355        0.7500    0.4500    0.1500
Fe     Fe356        0.7500    0.4500    0.7500
Fe     Fe357        0.7500    0.4500    0.9500
Fe     Fe358        0.7500    0.6500    0.1500
Fe     Fe359        0.7500    0.6500    0.3500
Fe     Fe360        0.7500    0.8500    0.5500
Fe     Fe361        0.9500    0.0500    0.3500
Fe     Fe362        0.9500    0.0500    0.5500
Fe     Fe363        0.9500    0.0500    0.7500
Fe     Fe364        0.9500    0.0500    0.9500
Fe     Fe365        0.9500    0.2500    0.1500
Fe     Fe366        0.9500    0.2500    0.3500
Fe     Fe367        0.9500    0.2500    0.5500
Fe     Fe368        0.9500    0.4500    0.1500
Fe     Fe369        0.9500    0.4500    0.3500
Fe     Fe370        0.9500    0.4500    0.5500
Fe     Fe371        0.9500    0.4500    0.7500
Fe     Fe372        0.9500    0.6500    0.5500
Fe     Fe373        0.9500    0.6500    0.7500
Fe     Fe374        0.9500    0.6500    0.9500
Va    Va375        0.1000    0.1000    0.4000
Va    Va376        0.1000    0.1000    0.8000
Va    Va377        0.1000    0.3000    0.4000
Va    Va378        0.1000    0.3000    0.8000
Va    Va379        0.1000    0.5000    0.6000
Va    Va380        0.1000    0.5000    0.8000
Va    Va381        0.1000    0.7000    0.0000
Va    Va382        0.1000    0.7000    0.6000
Va    Va383        0.1000    0.9000    0.8000
Va    Va384        0.3000    0.1000    0.0000
Va    Va385        0.3000    0.1000    0.2000
Va    Va386        0.3000    0.1000    0.4000
Va    Va387        0.3000    0.1000    0.6000
Va    Va388        0.3000    0.1000    0.8000
Va    Va389        0.3000    0.3000    0.0000
Va    Va390        0.3000    0.3000    0.2000
Va    Va391        0.3000    0.3000    0.4000
Va    Va392        0.3000    0.3000    0.6000
Va    Va393        0.3000    0.3000    0.8000
Va    Va394        0.3000    0.5000    0.2000
Va    Va395        0.3000    0.5000    0.4000
Va    Va396        0.3000    0.5000    0.8000
Va    Va397        0.3000    0.7000    0.6000
Va    Va398        0.3000    0.7000    0.8000
Va    Va399        0.3000    0.9000    0.0000
Va    Va400        0.3000    0.9000    0.2000
Va    Va401        0.3000    0.9000    0.6000
Va    Va402        0.3000    0.9000    0.8000
Va    Va403        0.5000    0.1000    0.0000
Va    Va404        0.5000    0.1000    0.8000
Va    Va405        0.5000    0.3000    0.0000
Va    Va406        0.5000    0.3000    0.8000
Va    Va407        0.5000    0.5000    0.0000
Va    Va408        0.5000    0.5000    0.6000
Va    Va409        0.5000    0.7000    0.0000
Va    Va410        0.5000    0.7000    0.4000
Va    Va411        0.5000    0.7000    0.6000
Va    Va412        0.5000    0.7000    0.8000
Va    Va413        0.5000    0.9000    0.2000
Va    Va414        0.7000    0.1000    0.0000
Va    Va415        0.7000    0.1000    0.4000
Va    Va416        0.7000    0.1000    0.6000
Va    Va417        0.7000    0.1000    0.8000
Va    Va418        0.7000    0.3000    0.4000
Va    Va419        0.7000    0.3000    0.6000
Va    Va420        0.7000    0.5000    0.6000
Va    Va421        0.7000    0.7000    0.2000
Va    Va422        0.7000    0.7000    0.4000
Va    Va423        0.7000    0.9000    0.4000
Va    Va424        0.7000    0.9000    0.6000
Va    Va425        0.7000    0.9000    0.8000
Va    Va426        0.9000    0.1000    0.0000
Va    Va427        0.9000    0.1000    0.8000
Va    Va428        0.9000    0.3000    0.2000
Va    Va429        0.9000    0.3000    0.6000
Va    Va430        0.9000    0.5000    0.2000
Va    Va431        0.9000    0.5000    0.6000
Va    Va432        0.9000    0.5000    0.8000
Va    Va433        0.9000    0.7000    0.2000
Va    Va434        0.9000    0.7000    0.8000
Va    Va435        0.9000    0.9000    0.0000
Va    Va436        0.9000    0.9000    0.2000
Va    Va437        0.9000    0.9000    0.4000
Na     Na438        0.1500    0.0500    0.7500
Na     Na439        0.1500    0.2500    0.1500
Na     Na440        0.1500    0.2500    0.3500
Na     Na441        0.1500    0.2500    0.9500
Na     Na442        0.1500    0.4500    0.5500
Na     Na443        0.1500    0.6500    0.1500
Na     Na444        0.1500    0.6500    0.3500
Na     Na445        0.1500    0.6500    0.5500
Na     Na446        0.1500    0.6500    0.7500
Na     Na447        0.1500    0.6500    0.9500
Na     Na448        0.1500    0.8500    0.3500
Na     Na449        0.1500    0.8500    0.7500
Na     Na450        0.3500    0.0500    0.1500
Na     Na451        0.3500    0.0500    0.5500
Na     Na452        0.3500    0.0500    0.9500
Na     Na453        0.3500    0.2500    0.3500
Na     Na454        0.3500    0.2500    0.5500
Na     Na455        0.3500    0.4500    0.1500
Na     Na456        0.3500    0.4500    0.3500
Na     Na457        0.3500    0.4500    0.7500
Na     Na458        0.3500    0.4500    0.9500
Na     Na459        0.3500    0.8500    0.3500
Na     Na460        0.3500    0.8500    0.7500
Na     Na461        0.5500    0.0500    0.1500
Na     Na462        0.5500    0.2500    0.1500
Na     Na463        0.5500    0.2500    0.3500
Na     Na464        0.5500    0.2500    0.9500
Na     Na465        0.5500    0.4500    0.1500
Na     Na466        0.5500    0.4500    0.5500
Na     Na467        0.5500    0.4500    0.9500
Na     Na468        0.5500    0.6500    0.1500
Na     Na469        0.5500    0.6500    0.3500
Na     Na470        0.5500    0.6500    0.5500
Na     Na471        0.5500    0.6500    0.7500
Na     Na472        0.5500    0.6500    0.9500
Na     Na473        0.5500    0.8500    0.7500
Na     Na474        0.7500    0.0500    0.1500
Na     Na475        0.7500    0.0500    0.5500
Na     Na476        0.7500    0.0500    0.7500
Na     Na477        0.7500    0.2500    0.3500
Na     Na478        0.7500    0.2500    0.5500
Na     Na479        0.7500    0.2500    0.7500
Na     Na480        0.7500    0.2500    0.9500
Na     Na481        0.7500    0.4500    0.3500
Na     Na482        0.7500    0.4500    0.5500
Na     Na483        0.7500    0.6500    0.5500
Na     Na484        0.7500    0.6500    0.7500
Na     Na485        0.7500    0.6500    0.9500
Na     Na486        0.7500    0.8500    0.1500
Na     Na487        0.7500    0.8500    0.3500
Na     Na488        0.7500    0.8500    0.7500
Na     Na489        0.7500    0.8500    0.9500
Na     Na490        0.9500    0.0500    0.1500
Na     Na491        0.9500    0.2500    0.7500
Na     Na492        0.9500    0.2500    0.9500
Na     Na493        0.9500    0.4500    0.9500
Na     Na494        0.9500    0.6500    0.1500
Na     Na495        0.9500    0.6500    0.3500
Na     Na496        0.9500    0.8500    0.1500
Na     Na497        0.9500    0.8500    0.3500
Na     Na498        0.9500    0.8500    0.5500
Na     Na499        0.9500    0.8500    0.7500
Na     Na500        0.9500    0.8500    0.9500
