data_taken_from_RMCProfile_configurations
_audit_creation_method  'by_Configurations_averaging'
_publ_section_comment
;
  (Configuration used: ytso_0.cif )
;
_cell_length_a                     10.0328
_cell_length_b                     10.0328
_cell_length_c                     10.0328
_cell_angle_alpha                  90.0000
_cell_angle_beta                   90.0000
_cell_angle_gamma                  90.0000

_symmetry_space_group_name_H-M    'P 1'
_symmetry_Int_Tables_number         1
_symmetry_cell_setting             triclinic
loop_
_symmetry_equiv_pos_as_xyz
'+x,+y,+z'

loop_
_atom_site_label
_atom_site_type_symbol
_atom_site_occupancy
_atom_site_fract_x
_atom_site_fract_y
_atom_site_fract_z
    O1     O 1.0000      0.3729    0.3738    0.3794
    O2     O 1.0000      0.3309    0.1239    0.1204
   Ti3    Ti 1.0000     -0.0016    0.0036   -0.0013
   Yb4    Yb 1.0000      0.4998    0.4961    0.5010
    O5     O 1.0000      0.6274    0.6275    0.6197
    O6     O 1.0000      0.6738    0.8747    0.8792
    O7     O 1.0000      0.3733    0.8727    0.8794
    O8     O 1.0000      0.4158    0.1289    0.6204
   Ti9    Ti 1.0000      0.7516    0.2481    0.4993
   Yb10   Yb 1.0000      0.2489    0.7520   -0.0001
    O11    O 1.0000      0.6277    0.1269    0.1198
    O12    O 1.0000      0.5805    0.8719    0.3794
   Ti13   Ti 1.0000      0.2511    0.7466    0.4991
   Yb14   Yb 1.0000      0.7495    0.2501    0.0001
    O15    O 1.0000      0.8726    0.8752    0.3809
    O16    O 1.0000      0.9148    0.6297    0.6210
   Ti17   Ti 1.0000      0.2509    0.5006    0.7506
   Yb18   Yb 1.0000      0.7487   -0.0003    0.2501
    O19    O 1.0000      0.1276    0.1276    0.6193
    O20    O 1.0000      0.0809    0.3726    0.3788
   Ti21   Ti 1.0000      0.7505    0.5006    0.2500
   Yb22   Yb 1.0000      0.2487   -0.0014    0.7499
    O23    O 1.0000      0.8722    0.3740    0.8814
    O24    O 1.0000      0.8319    0.6228    0.1203
   Ti25   Ti 1.0000      0.5015    0.7510    0.2472
   Yb26   Yb 1.0000     -0.0005    0.2491    0.7516
    O27    O 1.0000      0.1277    0.6278    0.1201
    O28    O 1.0000      0.1735    0.3754    0.8788
   Ti29   Ti 1.0000      0.5011    0.2508    0.7482
   Yb30   Yb 1.0000     -0.0013    0.7492    0.2515
    O31    O 1.0000      0.1264    0.3265    0.1250
    O32    O 1.0000      0.8771    0.6716    0.8731
    O33    O 1.0000      0.6210    0.4220    0.1255
    O34    O 1.0000      0.3772    0.5838    0.8749
    O35    O 1.0000      0.6216    0.9211    0.6260
    O36    O 1.0000      0.3774    0.0832    0.3744
    O37    O 1.0000      0.1257    0.8256    0.6254
    O38    O 1.0000      0.8773    0.1728    0.3730
    O39    O 1.0000      0.1262    0.1224    0.3334
    O40    O 1.0000      0.8740    0.8782    0.6695
    O41    O 1.0000      0.1291    0.6238    0.4109
    O42    O 1.0000      0.8719    0.3760    0.5851
    O43    O 1.0000      0.6293    0.6229    0.9116
    O44    O 1.0000      0.3712    0.3765    0.0845
    O45    O 1.0000      0.6255    0.1227    0.8327
    O46    O 1.0000      0.3739    0.8783    0.1689
    O47    O 1.0000      0.8775    0.5830    0.3746
    O48    O 1.0000      0.1224    0.4230    0.6258
    O49    O 1.0000      0.3773    0.1718    0.8722
    O50    O 1.0000      0.6262    0.8269    0.1247
    O51    O 1.0000      0.1738    0.8751    0.3805
    O52    O 1.0000      0.8314    0.1239    0.6211
    O53    O 1.0000      0.5812    0.3721    0.8792
    O54    O 1.0000      0.4159    0.6292    0.1201
    O55    O 1.0000      0.8742    0.3781    0.1687
    O56    O 1.0000      0.1258    0.6227    0.8322
    O57    O 1.0000      0.3718    0.8758    0.5843
    O58    O 1.0000      0.6290    0.1243    0.4127
    O59    O 1.0000      0.3318    0.6228    0.6198
   Ti60   Ti 1.0000     -0.0005    0.5040    0.4986
   Yb61   Yb 1.0000      0.4991   -0.0031    0.0021
    O62    O 1.0000      0.6740    0.3756    0.3793
   Ti63   Ti 1.0000      0.7515    0.7472   -0.0009
   Yb64   Yb 1.0000      0.2492    0.2508    0.4995
   Ti65   Ti 1.0000      0.2516    0.2481   -0.0009
   Yb66   Yb 1.0000      0.7488    0.7518    0.5001
    O67    O 1.0000      0.9149    0.1293    0.1208
   Ti68   Ti 1.0000      0.2509    0.0001    0.2508
   Yb69   Yb 1.0000      0.7494    0.4997    0.7496
    O70    O 1.0000      0.0791    0.8734    0.8789
   Ti71   Ti 1.0000      0.7499    0.0008    0.7501
   Yb72   Yb 1.0000      0.2491    0.4999    0.2490
    O73    O 1.0000      0.1291    0.1235    0.9123
    O74    O 1.0000      0.8714    0.8759    0.0842
    O75    O 1.0000      0.6257    0.6225    0.3325
    O76    O 1.0000      0.3744    0.3788    0.6694
    O77    O 1.0000      0.8771    0.0837    0.8740
    O78    O 1.0000      0.1225    0.9220    0.1252
    O79    O 1.0000      0.3773    0.6717    0.3731
    O80    O 1.0000      0.6256    0.3255    0.6251
   Ti81   Ti 1.0000      0.4993    0.0032    0.4986
   Yb82   Yb 1.0000     -0.0007    0.4984    0.0008
   Ti83   Ti 1.0000      0.0002    0.7503    0.7476
   Yb84   Yb 1.0000      0.4990    0.2495    0.2508
   Ti85   Ti 1.0000      0.0010    0.2501    0.2479
   Yb86   Yb 1.0000      0.4992    0.7477    0.7526
   Ti87   Ti 1.0000      0.4985    0.5032   -0.0011
   Yb88   Yb 1.0000     -0.0010   -0.0028    0.5025

loop_
_atom_site_aniso_label
_atom_site_aniso_U_11
_atom_site_aniso_U_22
_atom_site_aniso_U_33
_atom_site_aniso_U_23
_atom_site_aniso_U_13
_atom_site_aniso_U_12
    O1      0.0255     0.0544     0.0504    -0.0000    -0.0043    -0.0234
    O2      0.0383     0.0188     0.0159     0.0030    -0.0032    -0.0056
   Ti3      0.0147     0.0203     0.0173    -0.0013    -0.0038    -0.0016
   Yb4      0.0178     0.0468     0.0614    -0.0118    -0.0094    -0.0146
    O5      0.0284     0.0649     0.0606     0.0003    -0.0058    -0.0228
    O6      0.0436     0.0235     0.0233     0.0050    -0.0048    -0.0060
    O7      0.0246     0.0435     0.0576     0.0009    -0.0006    -0.0159
    O8      0.0378     0.0233     0.0214    -0.0053    -0.0002    -0.0127
   Ti9      0.0094     0.0171     0.0162     0.0001    -0.0024    -0.0015
   Yb10     0.0331     0.0689     0.0477    -0.0083     0.0010    -0.0320
    O11     0.0230     0.0476     0.0505     0.0062    -0.0088    -0.0180
    O12     0.0327     0.0249     0.0214    -0.0063    -0.0009    -0.0146
   Ti13     0.0110     0.0172     0.0175    -0.0006    -0.0027    -0.0027
   Yb14     0.0382     0.0786     0.0520    -0.0086     0.0012    -0.0374
    O15     0.0298     0.0441     0.0437    -0.0002    -0.0058    -0.0161
    O16     0.0324     0.0202     0.0184    -0.0043    -0.0013    -0.0123
   Ti17     0.0113     0.0162     0.0122    -0.0041     0.0010    -0.0011
   Yb18     0.0212     0.0446     0.0522     0.0115    -0.0145    -0.0124
    O19     0.0211     0.0540     0.0486    -0.0039    -0.0030    -0.0175
    O20     0.0341     0.0222     0.0210    -0.0033    -0.0043    -0.0146
   Ti21     0.0077     0.0136     0.0100    -0.0030     0.0016    -0.0010
   Yb22     0.0217     0.0461     0.0490     0.0092    -0.0162    -0.0120
    O23     0.0292     0.0506     0.0622     0.0075    -0.0088    -0.0230
    O24     0.0341     0.0176     0.0186     0.0053    -0.0059    -0.0062
   Ti25     0.0477     0.0140     0.0144    -0.0013    -0.0054    -0.0046
   Yb26     0.0269     0.0382     0.0706    -0.0248     0.0009    -0.0070
    O27     0.0230     0.0585     0.0537     0.0106    -0.0074    -0.0201
    O28     0.0427     0.0258     0.0245     0.0059    -0.0090    -0.0037
   Ti29     0.0561     0.0156     0.0133    -0.0012    -0.0002    -0.0075
   Yb30     0.0251     0.0544     0.0581    -0.0246    -0.0013    -0.0060
    O31     0.0095     0.0715     0.0208    -0.0052     0.0002    -0.0035
    O32     0.0076     0.0535     0.0193    -0.0055    -0.0006    -0.0067
    O33     0.0307     0.0565     0.0242     0.0027    -0.0061    -0.0012
    O34     0.0238     0.0469     0.0190     0.0010    -0.0048    -0.0018
    O35     0.0276     0.0546     0.0239    -0.0009    -0.0033    -0.0030
    O36     0.0260     0.0354     0.0203     0.0020    -0.0086    -0.0075
    O37     0.0106     0.0878     0.0233     0.0059     0.0001    -0.0061
    O38     0.0081     0.0721     0.0215    -0.0070    -0.0026    -0.0054
    O39     0.0117     0.0129     0.0338    -0.0092     0.0073    -0.0062
    O40     0.0118     0.0123     0.0367    -0.0025     0.0031    -0.0037
    O41     0.0137     0.0200     0.0682    -0.0012    -0.0036    -0.0100
    O42     0.0165     0.0197     0.0771    -0.0058    -0.0032    -0.0041
    O43     0.0157     0.0181     0.0629    -0.0045     0.0020    -0.0088
    O44     0.0154     0.0175     0.0714    -0.0020    -0.0033    -0.0062
    O45     0.0096     0.0103     0.0360    -0.0038     0.0029    -0.0032
    O46     0.0101     0.0129     0.0301    -0.0074     0.0043    -0.0030
    O47     0.0223     0.0436     0.0211    -0.0005    -0.0055    -0.0039
    O48     0.0311     0.0683     0.0264     0.0012    -0.0062    -0.0061
    O49     0.0072     0.0575     0.0177    -0.0058    -0.0007    -0.0080
    O50     0.0098     0.0808     0.0210    -0.0006    -0.0015    -0.0024
    O51     0.0470     0.0247     0.0253     0.0080    -0.0036    -0.0050
    O52     0.0380     0.0179     0.0174     0.0033    -0.0041    -0.0080
    O53     0.0375     0.0196     0.0231    -0.0044    -0.0052    -0.0136
    O54     0.0245     0.0178     0.0186    -0.0051     0.0016    -0.0097
    O55     0.0124     0.0124     0.0349    -0.0062     0.0053    -0.0029
    O56     0.0104     0.0113     0.0333    -0.0063     0.0060    -0.0034
    O57     0.0164     0.0202     0.0719    -0.0034    -0.0031    -0.0065
    O58     0.0148     0.0178     0.0686    -0.0044     0.0030    -0.0072
    O59     0.0328     0.0166     0.0159     0.0030    -0.0016    -0.0030
   Ti60     0.0135     0.0207     0.0187    -0.0007    -0.0021    -0.0031
   Yb61     0.0203     0.0530     0.0636    -0.0155    -0.0081    -0.0166
    O62     0.0421     0.0263     0.0222     0.0084    -0.0063    -0.0025
   Ti63     0.0107     0.0168     0.0154     0.0004    -0.0021    -0.0013
   Yb64     0.0441     0.0772     0.0556    -0.0010    -0.0044    -0.0418
   Ti65     0.0089     0.0141     0.0144     0.0002    -0.0011    -0.0022
   Yb66     0.0398     0.0685     0.0572    -0.0072    -0.0022    -0.0356
    O67     0.0379     0.0242     0.0193    -0.0062     0.0025    -0.0137
   Ti68     0.0110     0.0138     0.0122    -0.0037    -0.0006    -0.0012
   Yb69     0.0196     0.0390     0.0491     0.0025    -0.0142    -0.0092
    O70     0.0366     0.0199     0.0201    -0.0032    -0.0033    -0.0126
   Ti71     0.0095     0.0188     0.0117    -0.0053    -0.0002    -0.0040
   Yb72     0.0227     0.0567     0.0527     0.0077    -0.0182    -0.0174
    O73     0.0145     0.0175     0.0648    -0.0063     0.0025    -0.0079
    O74     0.0149     0.0216     0.0696    -0.0024    -0.0038    -0.0043
    O75     0.0108     0.0123     0.0279    -0.0050     0.0064    -0.0031
    O76     0.0129     0.0152     0.0491    -0.0055     0.0106    -0.0039
    O77     0.0261     0.0425     0.0224     0.0003    -0.0090    -0.0038
    O78     0.0266     0.0533     0.0207     0.0013    -0.0037    -0.0015
    O79     0.0085     0.0619     0.0189    -0.0082    -0.0003    -0.0074
    O80     0.0104     0.0688     0.0235     0.0002    -0.0004    -0.0032
   Ti81     0.0119     0.0175     0.0180    -0.0016    -0.0036    -0.0026
   Yb82     0.0198     0.0569     0.0706    -0.0075    -0.0104    -0.0171
   Ti83     0.0491     0.0160     0.0134     0.0003    -0.0025    -0.0068
   Yb84     0.0240     0.0482     0.0503    -0.0179     0.0010    -0.0069
   Ti85     0.0562     0.0193     0.0140    -0.0009    -0.0062    -0.0058
   Yb86     0.0298     0.0529     0.0593    -0.0240     0.0032    -0.0083
   Ti87     0.0133     0.0181     0.0210    -0.0012    -0.0027    -0.0031
   Yb88     0.0226     0.0598     0.0676    -0.0153    -0.0104    -0.0183
