
#======================================================================
# CRYSTAL DATA
#----------------------------------------------------------------------
data_VESTA_phase_1

_chemical_name_common                  'Lithium gallium bis(selenate(IV))'
_cell_length_a                         10.5402(15)
_cell_length_b                         10.5402(15)
_cell_length_c                         9.828(2)
_cell_angle_alpha                      90.000000
_cell_angle_beta                       90.000000
_cell_angle_gamma                      90.000000
_cell_volume                           1091.849736
_space_group_name_H-M_alt              'I -4 2 d'
_space_group_IT_number                 122

loop_
_space_group_symop_operation_xyz
   'x, y, z'
   '-x, -y, z'
   'y, -x, -z'
   '-y, x, -z'
   '-x+1/2, y, -z+3/4'
   'x+1/2, -y, -z+3/4'
   '-y+1/2, -x, z+3/4'
   'y+1/2, x, z+3/4'
   'x+1/2, y+1/2, z+1/2'
   '-x+1/2, -y+1/2, z+1/2'
   'y+1/2, -x+1/2, -z+1/2'
   '-y+1/2, x+1/2, -z+1/2'
   '-x, y+1/2, -z+1/4'
   'x, -y+1/2, -z+1/4'
   '-y, -x+1/2, z+1/4'
   'y, x+1/2, z+1/4'

loop_
   _atom_site_label
   _atom_site_occupancy
   _atom_site_fract_x
   _atom_site_fract_y
   _atom_site_fract_z
   _atom_site_adp_type
   _atom_site_U_iso_or_equiv
   _atom_site_type_symbol
   Se1        1.0     0.44653(4)   0.22561(4)  -0.15954(4)  Uani  0.007380 Se
   Ga1        1.0     0.28795(6)   0.250000     0.125000    Uani  0.006333 Ga
   O1         1.0     0.4266(4)    0.2941(4)   -0.0041(4)   Uani  0.010833 O
   O2         1.0     0.3417(4)    0.3165(4)   -0.2489(4)   Uani  0.010233 O
   O3         1.0     0.5824(4)    0.2949(4)   -0.2099(4)   Uani  0.012000 O
   Li1        1.0     0.5640(13)   0.250000     0.125000    Uani  0.026000 Li

loop_
   _atom_site_aniso_label
   _atom_site_aniso_U_11
   _atom_site_aniso_U_22
   _atom_site_aniso_U_33
   _atom_site_aniso_U_12
   _atom_site_aniso_U_13
   _atom_site_aniso_U_23
   Se1	 0.00690  0.00870  0.00654  0.00017  0.00014 -0.00026
   Ga1	 0.00690  0.00670  0.00540  0.00000  0.00000  0.00050
   O1	 0.01020  0.01330  0.00900 -0.00220  0.00330 -0.00120
   O2	 0.00960  0.01070  0.01040  0.00070 -0.00340 -0.00160
   O3	 0.00630  0.02010  0.00960 -0.00250 -0.00130  0.00290
   Li1	 0.01800  0.04300  0.01700  0.00000  0.00000 -0.01100
