# UWO5-GOF=2.49-Final

data_3D
_audit_creation_date            2022-09-29
_audit_creation_method          P_cif.py

_symmetry_space_group_name_H-M  'P1'
_symmetry_Int_Tables_number     1
_symmetry_cell_setting          triclinic

_cell_length_a                  21.5763
_cell_length_b                  8.63712
_cell_length_c                  19.4025
_cell_angle_alpha               89.8129
_cell_angle_beta                101.076
_cell_angle_gamma               90.0765

loop_
  _atom_site_label
  _atom_site_type_symbol
  _atom_site_fract_x
  _atom_site_fract_y
  _atom_site_fract_z
  _atom_site_U_iso_or_equiv
  _atom_site_adp_type
  _atom_site_occupancy
  Ta1   Ta     0.300830    0.408480    0.493997    0.010933 Uani  1.0000
  Ta2   Ta     0.761436    0.568122    0.471679    0.022901 Uani  1.0000
  Ta3   Ta     0.878151    0.939101    0.287792    0.017169 Uani  1.0000
  Ta4   Ta     0.235934    0.114936    0.168272    0.046440 Uani  1.0000
  Ta5   Ta     0.175206    0.720029    0.604028    0.018689 Uani  1.0000
  Ta6   Ta     0.340467    0.696468    0.403009    0.020204 Uani  1.0000
  Ta7   Ta     0.852954    0.239014    0.406595    0.019960 Uani  1.0000
  Ta8   Ta     0.680191    0.215285    0.594699    0.016364 Uani  1.0000
  Ta9   Ta     0.608396    0.226637    0.071751    0.015006 Uani  1.0000
  Ta10  Ta     0.841464    0.214548    0.901240    0.014105 Uani  1.0000
  Ta11  Ta     0.350734    0.814573    0.892326    0.034647 Uani  1.0000
  Ta12  Ta     0.162578    0.792998    0.102523    0.026528 Uani  1.0000
  Ta13  Ta     0.092026    0.400535    0.372787    0.017568 Uani  1.0000
  Ta14  Ta     0.407957    0.391541    0.632396    0.018920 Uani  1.0000
  Ta15  Ta     0.901638    0.611543    0.619292    0.044171 Uani  1.0000
  Ta16  Ta     0.594391    0.609621    0.378476    0.027570 Uani  1.0000
  Ta17  Ta     0.590068    0.877128    0.883511    0.013014 Uani  1.0000
  Ta18  Ta     0.904195    0.898512    0.134832    0.014602 Uani  1.0000
  Ta19  Ta     0.393463    0.115703    0.146857    0.018540 Uani  1.0000
  Ta20  Ta     0.105846    0.123114    0.856970    0.025798 Uani  1.0000
  Ta21  Ta     0.505041    0.518899    0.501224    0.027808 Uani  1.0000
  Ta22  Ta     0.002966    0.515493    0.501235    0.049025 Uani  1.0000
  Ta23  Ta     0.014307    0.024953    0.003017    0.019457 Uani  1.0000
  Ta24  Ta     0.504143   -0.032865   -0.002249    0.023111 Uani  1.0000
  O1    O      0.321192    0.868008    0.936737    0.007453 Uani  1.0000
  O2    O      0.203510    0.937998    0.081860    0.004776 Uani  1.0000
  O3    O      0.695193    0.040770    0.108053    0.008860 Uani  1.0000
  O4    O      0.814967    0.055336    0.898912    0.005615 Uani  1.0000
  O5    O      0.783881    0.366883    0.413375    0.007922 Uani  1.0000
  O6    O      0.733377    0.427315    0.556533    0.003921 Uani  1.0000
  O7    O      0.216983    0.633769    0.531473    0.008863 Uani  1.0000
  O8    O      0.256830    0.549410    0.430578    0.003481 Uani  1.0000
  O9    O      0.172612    0.108479    0.935229    0.003485 Uani  1.0000
  O10   O      0.328527    0.119369    0.065630    0.004651 Uani  1.0000
  O11   O      0.839636    0.867792    0.093105    0.003942 Uani  1.0000
  O12   O      0.623353    0.844062    0.925875    0.006801 Uani  1.0000
  O13   O      0.699689    0.546792    0.439464    0.004349 Uani  1.0000
  O14   O      0.829968    0.571787    0.561533    0.004996 Uani  1.0000
  O15   O      0.326253    0.402921    0.566076    0.009909 Uani  1.0000
  O16   O      0.195486    0.444493    0.439241    0.002498 Uani  1.0000
  O17   O      0.081727    0.583670    0.543010    0.002266 Uani  1.0000
  O18   O      0.421519    0.569991    0.488742    0.003054 Uani  1.0000
  O19   O      0.935812    0.404786    0.485735    0.006878 Uani  1.0000
  O20   O      0.575644    0.421139    0.511953    0.004485 Uani  1.0000
  O21   O      0.556025    0.106500    0.006788    0.010442 Uani  1.0000
  O22   O      0.923837    0.075318    0.975370    0.006057 Uani  1.0000
  O23   O      0.425985    0.910842    0.986063    0.003874 Uani  1.0000
  O24   O      0.092493    0.934558    0.054920    0.008080 Uani  1.0000
  O25   O      0.050659    0.465233    0.434880    0.006068 Uani  1.0000
  O26   O      0.456913    0.481970    0.576244    0.007121 Uani  1.0000
  O27   O      0.943462    0.550454    0.564509    0.004044 Uani  1.0000
  O28   O      0.543053    0.538357    0.428887    0.004102 Uiso  1.0000
  O29   O      0.554272    0.962608    0.928426    0.007638 Uani  1.0000
  O30   O      0.955266    0.932667    0.087505    0.004625 Uani  1.0000
  O31   O      0.437989    0.056437    0.071052    0.007451 Uani  1.0000
  O32   O      0.066151    0.070003    0.936927    0.005189 Uani  1.0000
  Cl1   Cl     0.308007    0.348994    0.916763    0.027946 Uani  1.0000
  Cl2   Cl     0.178549    0.295935    0.087691    0.026417 Uani  1.0000
  Cl3   Cl     0.686137    0.634359    0.073843    0.031787 Uani  1.0000
  Cl4   Cl     0.822184    0.680123    0.940875    0.026801 Uani  1.0000
  Cl5   Cl     0.827444    0.858570    0.437686    0.027078 Uani  1.0000
  Cl6   Cl     0.724947    0.853612    0.577225    0.021570 Uani  1.0000
  Cl7   Cl     0.185048    0.157445    0.561756    0.018788 Uani  1.0000
  Cl8   Cl     0.294943    0.180791    0.420658    0.031400 Uani  1.0000
  Cl9   Cl     0.240408    0.858036    0.659056    0.016439 Uani  1.0000
  Cl10  Cl     0.251683    0.812906    0.331960    0.029287 Uani  1.0000
  Cl11  Cl     0.779473    0.164124    0.338408    0.148811 Uani  1.0000
  Cl12  Cl     0.744613    0.149302    0.672491    0.032295 Uani  1.0000
  Cl13  Cl     0.739837    0.255924    0.176330    0.021786 Uani  1.0000
  Cl14  Cl     0.778670    0.304931    0.847619    0.043093 Uani  1.0000
  Cl15  Cl     0.274488    0.699297    0.845856    0.013504 Uani  1.0000
  Cl16  Cl     0.227497    0.624455    0.186543    0.034049 Uani  1.0000
  Cl17  Cl     0.171016    0.569677    0.704028    0.019475 Uani  1.0000
  Cl18  Cl     0.302563    0.577812    0.360759    0.041884 Uani  1.0000
  Cl19  Cl     0.805849    0.360731    0.356653    0.011567 Uani  1.0000
  Cl20  Cl     0.640956    0.458332    0.710876    0.025462 Uani  1.0000
  Cl21  Cl     0.615918    0.000809    0.142355    0.103845 Uani  1.0000
  Cl22  Cl     0.849608    0.039431    0.812418    0.062593 Uani  1.0000
  Cl23  Cl     0.362509    0.995364    0.815423    0.033878 Uani  1.0000
  Cl24  Cl     0.163325    0.973666    0.140005    0.043879 Uani  1.0000
  Cl25  Cl     0.174522    0.801325    0.487145    0.013081 Uani  1.0000
  Cl26  Cl     0.344200    0.785264    0.492151    0.010991 Uani  1.0000
  Cl27  Cl     0.831343    0.169832    0.492546    0.012996 Uani  1.0000
  Cl28  Cl     0.685214    0.205281    0.499392    0.023667 Uani  1.0000
  Cl29  Cl     0.604403    0.304654    0.013519    0.040561 Uani  1.0000
  Cl30  Cl     0.851163    0.347636    0.012238    0.018985 Uani  1.0000
  Cl31  Cl     0.376980    0.665970    0.002755    0.026170 Uani  1.0000
  Cl32  Cl     0.145182    0.622356    0.005465    0.021464 Uani  1.0000
  Cl33  Cl     0.088284    0.877006    0.628449    0.026875 Uani  1.0000
  Cl34  Cl     0.392533    0.895138    0.348701    0.025706 Uani  1.0000
  Cl35  Cl     0.904841    0.090174    0.365925    0.011459 Uani  1.0000
  Cl36  Cl     0.586929    0.117439    0.623604    0.029529 Uani  1.0000
  Cl37  Cl     0.598335    0.376548    0.131100    0.055114 Uani  1.0000
  Cl38  Cl     0.916420    0.380721    0.868072    0.040815 Uani  1.0000
  Cl39  Cl     0.414007    0.650565    0.846925    0.061036 Uani  1.0000
  Cl40  Cl     0.082763    0.626381    0.141927    0.040720 Uani  1.0000
  Cl41  Cl     0.106690    0.668796    0.330515    0.041407 Uani  1.0000
  Cl42  Cl     0.424315    0.668216    0.649706    0.060652 Uani  1.0000
  Cl43  Cl     0.900344    0.365857    0.696774    0.059305 Uani  1.0000
  Cl44  Cl     0.571830    0.407866    0.379879    0.035767 Uani  1.0000
  Cl45  Cl     0.569617    0.138814    0.846601    0.031071 Uani  1.0000
  Cl46  Cl     0.885799    0.122421    0.199096    0.023981 Uani  1.0000
  Cl47  Cl     0.435503    0.864908    0.138453    0.018688 Uani  1.0000
  Cl48  Cl     0.093359    0.872285    0.807009    0.012137 Uani  1.0000
  Cl49  Cl     0.170734    0.329035    0.267592    0.017437 Uani  1.0000
  Cl50  Cl     0.313049    0.350760    0.739398    0.035794 Uani  1.0000
  Cl51  Cl     0.817237    0.701222    0.719145    0.066539 Uani  1.0000
  Cl52  Cl     0.675762    0.617388    0.245404    0.032346 Uani  1.0000
  Cl53  Cl     0.704876    0.840245    0.795696    0.038530 Uani  1.0000
  Cl54  Cl     0.827004    0.895085    0.210529    0.009659 Uani  1.0000
  Cl55  Cl     0.301391    0.140088    0.190901    0.067436 Uani  1.0000
  Cl56  Cl     0.187149    0.199503    0.797316    0.058045 Uani  1.0000
  Cl57  Cl     0.026271    0.395715    0.243608    0.021435 Uani  1.0000
  Cl58  Cl     0.481394    0.391144    0.743921    0.028603 Uani  1.0000
  Cl59  Cl     0.964774    0.586482    0.736372    0.013831 Uani  1.0000
  Cl60  Cl     0.521471    0.546234    0.273046    0.025217 Uani  1.0000
  Cl61  Cl     0.500293    0.905981    0.786253    0.034312 Uani  1.0000
  Cl62  Cl     0.971872    0.830296    0.257889    0.023785 Uani  1.0000
  Cl63  Cl     0.483830    0.129107    0.243227    0.010056 Uani  1.0000
  Cl64  Cl     0.018545    0.075669    0.763821    0.025474 Uani  1.0000
  Cl65  Cl     0.082376    0.125466    0.359743    0.011368 Uani  1.0000
  Cl66  Cl     0.410072    0.119312    0.657521    0.009007 Uani  1.0000
  Cl67  Cl     0.919930    0.879584    0.625093    0.015536 Uani  1.0000
  Cl68  Cl     0.602621    0.819901    0.347938    0.023345 Uani  1.0000
  Cl69  Cl     0.584271    0.608546    0.862704    0.017887 Uani  1.0000
  Cl70  Cl     0.902287    0.634475    0.122253    0.006551 Uani  1.0000
  Cl71  Cl     0.411231    0.384892    0.128363    0.027246 Uani  1.0000
  Cl72  Cl     0.066397    0.379003    0.866973    0.017511 Uani  1.0000
  Cl73  Cl     0.513450    0.333096    0.413099    0.022278 Uani  1.0000
  Cl74  Cl    -0.025899    0.161410    0.529006    0.042599 Uani  1.0000
  Cl75  Cl     0.484505    0.742446    0.565939    0.017236 Uani  1.0000
  Cl76  Cl     0.971837    0.793041    0.462321    0.007711 Uani  1.0000
  Cl77  Cl     0.994808    0.702085    0.932671    0.088751 Uani  1.0000
  Cl78  Cl     0.543201    0.712845    0.041110    0.023612 Uani  1.0000
  Cl79  Cl     0.032857    0.279814    0.063452    0.054371 Uani  1.0000
  Cl80  Cl     0.471188    0.264976    0.933391    0.064025 Uani  1.0000
  Li1   Li     0.850754    0.409793    0.175108    0.014358 Uiso  1.0000
  Li2   Li     0.648034    0.290298    0.878939    0.014358 Uiso  1.0000
  Li3   Li     0.159218    0.663267    0.871579    0.014358 Uiso  1.0000
  Li4   Li     0.348017    0.573968    0.129492    0.014358 Uiso  1.0000
  Li5   Li     0.331848    0.882325    0.632397    0.014358 Uiso  1.0000
  Li6   Li     0.155621    0.948067    0.375353    0.014358 Uiso  1.0000
  Li7   Li     0.662529   -0.069676    0.363301    0.014358 Uiso  1.0000
  Li8   Li     0.840385    0.105628    0.649156    0.014358 Uiso  1.0000
  Li9   Li     0.694580    0.302020    0.236321    0.014358 Uiso  1.0000
  Li10  Li     0.805712    0.355725    0.769477    0.014358 Uiso  1.0000
  Li11  Li     0.268861    0.630164    0.702187    0.014358 Uiso  1.0000
  Li12  Li     0.240322    0.574340    0.226188    0.014358 Uiso  1.0000
  Li13  Li     0.196968    0.869128    0.732643    0.014358 Uiso  1.0000
  Li14  Li     0.322659    0.800588    0.264923    0.014358 Uiso  1.0000
  Li15  Li     0.808100    0.132203    0.261085    0.014358 Uiso  1.0000
  Li16  Li     0.694322    0.157787    0.733950    0.014358 Uiso  1.0000
  Li17  Li     0.496795    0.358227    0.205172    0.014358 Uiso  1.0000
  Li18  Li     0.009036    0.373014    0.789005    0.014358 Uiso  1.0000
  Li19  Li     0.491755    0.614013    0.791361    0.014358 Uiso  1.0000
  Li20  Li     0.019626    0.636828    0.211797    0.014358 Uiso  1.0000
  Li21  Li    -0.006794    0.874916    0.701480    0.014358 Uiso  1.0000
  Li22  Li     0.488651    0.883114    0.279240    0.014358 Uiso  1.0000
  Li23  Li     0.000240    0.144589    0.299071    0.014358 Uiso  1.0000
  Li24  Li     0.537782    0.183387    0.735530    0.014358 Uiso  1.0000
loop_
  _atom_site_aniso_label
  _atom_site_aniso_U_11
  _atom_site_aniso_U_22
  _atom_site_aniso_U_33
  _atom_site_aniso_U_12
  _atom_site_aniso_U_13
  _atom_site_aniso_U_23
  Ta1    0.000147  0.017036  0.015035  0.000000  0.000000  0.000000
  Ta2    0.003074  0.063895  0.001556  0.000000  0.000000  0.000000
  Ta3    0.008575  0.015428  0.026171  0.000000  0.000000  0.000000
  Ta4    0.059004  0.066321  0.011300  0.000000  0.000000  0.000000
  Ta5    0.037575  0.009991  0.006800  0.000000  0.000000  0.000000
  Ta6    0.034969  0.013130  0.010760  0.000000  0.000000  0.000000
  Ta7    0.003930  0.008581  0.045476  0.000000  0.000000  0.000000
  Ta8    0.000286  0.019075  0.028623  0.000000  0.000000  0.000000
  Ta9    0.019243  0.022271  0.002666  0.000000  0.000000  0.000000
  Ta10   0.016726  0.014073  0.010474  0.000000  0.000000  0.000000
  Ta11   0.015854  0.080378  0.006838  0.000000  0.000000  0.000000
  Ta12   0.023455  0.026265  0.027894  0.000000  0.000000  0.000000
  Ta13   0.004130  0.025390  0.022175  0.000000  0.000000  0.000000
  Ta14   0.016080  0.012796  0.026262  0.000000  0.000000  0.000000
  Ta15   0.090347  0.033290  0.005215  0.000000  0.000000  0.000000
  Ta16   0.060624  0.005645  0.013596  0.000000  0.000000  0.000000
  Ta17   0.010410  0.013192  0.014486  0.000000  0.000000  0.000000
  Ta18   0.013913  0.024996  0.004202  0.000000  0.000000  0.000000
  Ta19   0.027408  0.005832  0.020542  0.000000  0.000000  0.000000
  Ta20   0.002937  0.067243  0.006838  0.000000  0.000000  0.000000
  Ta21   0.048816  0.010417  0.021497  0.000000  0.000000  0.000000
  Ta22   0.054155  0.019624  0.068591  0.000000  0.000000  0.000000
  Ta23   0.024861  0.007002  0.024611  0.000000  0.000000  0.000000
  Ta24   0.007072  0.051164  0.010427  0.000000  0.000000  0.000000
  O1     0.005319  0.009516  0.007049  0.000000  0.000000  0.000000
  O2     0.000454  0.008973  0.004702  0.000000  0.000000  0.000000
  O3     0.005129  0.020730  0.000507  0.000000  0.000000  0.000000
  O4     0.005970  0.008918  0.001663  0.000000  0.000000  0.000000
  O5     0.008032  0.006389  0.008703  0.000000  0.000000  0.000000
  O6     0.002419  0.004047  0.005012  0.000000  0.000000  0.000000
  O7     0.001480  0.010709  0.013813  0.000000  0.000000  0.000000
  O8     0.004000  0.005703  0.000566  0.000000  0.000000  0.000000
  O9     0.001648  0.005275  0.003339  0.000000  0.000000  0.000000
  O10    0.004459  0.004067  0.005061  0.000000  0.000000  0.000000
  O11    0.003202  0.004349  0.004000  0.000000  0.000000  0.000000
  O12    0.004000  0.013291  0.002849  0.000000  0.000000  0.000000
  O13    0.007798  0.004214  0.000708  0.000000  0.000000  0.000000
  O14    0.003527  0.000999  0.009945  0.000000  0.000000  0.000000
  O15    0.006499  0.018824  0.004000  0.000000  0.000000  0.000000
  O16    0.003213  0.001787  0.002283  0.000000  0.000000  0.000000
  O17    0.003044  0.003150  0.000469  0.000000  0.000000  0.000000
  O18    0.001809  0.005544  0.001675  0.000000  0.000000  0.000000
  O19    0.006197  0.010617  0.003450  0.000000  0.000000  0.000000
  O20    0.002949  0.006240  0.004000  0.000000  0.000000  0.000000
  O21    0.004000  0.015606  0.011138  0.000000  0.000000  0.000000
  O22    0.005384  0.000915  0.011235  0.000000  0.000000  0.000000
  O23    0.004000  0.004000  0.003339  0.000000  0.000000  0.000000
  O24    0.003146  0.010198  0.010378  0.000000  0.000000  0.000000
  O25    0.012943  0.002850  0.001844  0.000000  0.000000  0.000000
  O26    0.008140  0.008606  0.004147  0.000000  0.000000  0.000000
  O27    0.005647  0.002114  0.004000  0.000000  0.000000  0.000000
  O29    0.004000  0.008533  0.009849  0.000000  0.000000  0.000000
  O30    0.005757  0.006926  0.000936  0.000000  0.000000  0.000000
  O31    0.007246  0.006113  0.008396  0.000000  0.000000  0.000000
  O32    0.004976  0.007729  0.002573  0.000000  0.000000  0.000000
  Cl1    0.019473  0.024978  0.037214  0.000000  0.000000  0.000000
  Cl2    0.030130  0.036098  0.011431  0.000000  0.000000  0.000000
  Cl3    0.062780  0.028790  0.001333  0.000000  0.000000  0.000000
  Cl4    0.024699  0.031522  0.022378  0.000000  0.000000  0.000000
  Cl5    0.027045  0.050039  0.002998  0.000000  0.000000  0.000000
  Cl6    0.035275  0.026606  0.001423  0.000000  0.000000  0.000000
  Cl7    0.038171  0.009388  0.007072  0.000000  0.000000  0.000000
  Cl8    0.038503  0.033772  0.019694  0.000000  0.000000  0.000000
  Cl9    0.024652  0.023435  0.000273  0.000000  0.000000  0.000000
  Cl10   0.055617  0.016931  0.012696  0.000000  0.000000  0.000000
  Cl11   0.293502  0.038656  0.099225  0.000000  0.000000  0.000000
  Cl12   0.040342  0.027247  0.026727  0.000000  0.000000  0.000000
  Cl13   0.020519  0.018574  0.024539  0.000000  0.000000  0.000000
  Cl14   0.022241  0.086970  0.018505  0.000000  0.000000  0.000000
  Cl15   0.030897  0.007661  0.000741  0.000000  0.000000  0.000000
  Cl16   0.052724  0.021042  0.025387  0.000000  0.000000  0.000000
  Cl17   0.010596  0.022521  0.023983  0.000000  0.000000  0.000000
  Cl18   0.035751  0.045852  0.041103  0.000000  0.000000  0.000000
  Cl19   0.008293  0.022774  0.003193  0.000000  0.000000  0.000000
  Cl20   0.034742  0.032514  0.007511  0.000000  0.000000  0.000000
  Cl21   0.028469  0.050199  0.223221  0.000000  0.000000  0.000000
  Cl22   0.001343  0.056743  0.124854  0.000000  0.000000  0.000000
  Cl23   0.027884  0.025862  0.045089  0.000000  0.000000  0.000000
  Cl24   0.015684  0.085882  0.028382  0.000000  0.000000  0.000000
  Cl25   0.013462  0.015665  0.009247  0.000000  0.000000  0.000000
  Cl26   0.007701  0.023531  0.001394  0.000000  0.000000  0.000000
  Cl27   0.009379  0.009404  0.019113  0.000000  0.000000  0.000000
  Cl28   0.030670  0.024619  0.014000  0.000000  0.000000  0.000000
  Cl29   0.074005  0.021157  0.022812  0.000000  0.000000  0.000000
  Cl30   0.016869  0.007437  0.030822  0.000000  0.000000  0.000000
  Cl31   0.053715  0.009760  0.012499  0.000000  0.000000  0.000000
  Cl32   0.015984  0.043241  0.004386  0.000000  0.000000  0.000000
  Cl33   0.030247  0.036745  0.012014  0.000000  0.000000  0.000000
  Cl34   0.011867  0.032180  0.031413  0.000000  0.000000  0.000000
  Cl35   0.007383  0.016802  0.009542  0.000000  0.000000  0.000000
  Cl36   0.027007  0.029484  0.029916  0.000000  0.000000  0.000000
  Cl37   0.054003  0.065099  0.042540  0.000000  0.000000  0.000000
  Cl38   0.055945  0.021376  0.041393  0.000000  0.000000  0.000000
  Cl39   0.076716  0.045290  0.056015  0.000000  0.000000  0.000000
  Cl40   0.053715  0.029671  0.035361  0.000000  0.000000  0.000000
  Cl41   0.054926  0.008131  0.056880  0.000000  0.000000  0.000000
  Cl42   0.108708  0.010055  0.056848  0.000000  0.000000  0.000000
  Cl43   0.054024  0.052816  0.066457  0.000000  0.000000  0.000000
  Cl44   0.038199  0.049601  0.017372  0.000000  0.000000  0.000000
  Cl45   0.017797  0.043003  0.030560  0.000000  0.000000  0.000000
  Cl46   0.018096  0.023875  0.028198  0.000000  0.000000  0.000000
  Cl47   0.042342  0.009539  0.002465  0.000000  0.000000  0.000000
  Cl48   0.000600  0.015099  0.019926  0.000000  0.000000  0.000000
  Cl49   0.011740  0.039326  0.000765  0.000000  0.000000  0.000000
  Cl50   0.053317  0.026709  0.024379  0.000000  0.000000  0.000000
  Cl51   0.035176  0.028651  0.129478  0.000000  0.000000  0.000000
  Cl52   0.018334  0.052161  0.024884  0.000000  0.000000  0.000000
  Cl53   0.003213  0.109189  0.002950  0.000000  0.000000  0.000000
  Cl54   0.016679  0.010458  0.001158  0.000000  0.000000  0.000000
  Cl55   0.006955  0.168836  0.025280  0.000000  0.000000  0.000000
  Cl56   0.003335  0.081920  0.085473  0.000000  0.000000  0.000000
  Cl57   0.037698  0.016975  0.007886  0.000000  0.000000  0.000000
  Cl58   0.008035  0.055324  0.021325  0.000000  0.000000  0.000000
  Cl59   0.002964  0.014299  0.023226  0.000000  0.000000  0.000000
  Cl60   0.019404  0.053888  0.001556  0.000000  0.000000  0.000000
  Cl61   0.023590  0.037275  0.039647  0.000000  0.000000  0.000000
  Cl62   0.005548  0.020374  0.043551  0.000000  0.000000  0.000000
  Cl63   0.001655  0.017759  0.010294  0.000000  0.000000  0.000000
  Cl64   0.027797  0.017678  0.028778  0.000000  0.000000  0.000000
  Cl65   0.014162  0.013124  0.006043  0.000000  0.000000  0.000000
  Cl66   0.014669  0.006428  0.005163  0.000000  0.000000  0.000000
  Cl67   0.022111  0.019980  0.003534  0.000000  0.000000  0.000000
  Cl68   0.038263  0.023224  0.006820  0.000000  0.000000  0.000000
  Cl69   0.032187  0.009952  0.009907  0.000000  0.000000  0.000000
  Cl70   0.000594  0.007495  0.011116  0.000000  0.000000  0.000000
  Cl71   0.003407  0.065203  0.012517  0.000000  0.000000  0.000000
  Cl72   0.025996  0.013119  0.011962  0.000000  0.000000  0.000000
  Cl73   0.009092  0.003584  0.051823  0.000000  0.000000  0.000000
  Cl74   0.018158  0.009441  0.095828  0.000000  0.000000  0.000000
  Cl75   0.032709  0.007194  0.010160  0.000000  0.000000  0.000000
  Cl76   0.005500  0.008956  0.008153  0.000000  0.000000  0.000000
  Cl77   0.030748  0.023700  0.202851  0.000000  0.000000  0.000000
  Cl78   0.035559  0.009581  0.023436  0.000000  0.000000  0.000000
  Cl79   0.083801  0.020770  0.053287  0.000000  0.000000  0.000000
  Cl80   0.042321  0.041123  0.103060  0.000000  0.000000  0.000000
