data_max_cluster
_audit_creation_method         'generated by data2config v5.5c'
 
_cell_length_a                  84.92680
_cell_length_b                  87.57400
_cell_length_c                  75.14280
_cell_angle_alpha               90.00000
_cell_angle_beta                96.73700
_cell_angle_gamma               90.00000
 
loop_
_symmetry_equiv_pos_as_xyz
'+x,+y,+z'
 
loop_
_atom_site_type_symbol
_atom_site_label
_atom_site_fract_x
_atom_site_fract_y
_atom_site_fract_z
Li    Li1        0.0859    0.0604    0.0348
Li    Li2        0.0804    0.0962    0.1611
Li    Li3        0.0421    0.0600    0.9656
Li    Li4        0.0430    0.0869    0.8363
Li    Li5        0.1712    0.1407    0.2162
Li    Li6        0.1608    0.1101    0.0809
Li    Li7        0.2098    0.1396    0.7888
Li    Li8        0.0824    0.1603    0.7838
Li    Li9        0.0430    0.2867    0.0902
Li    Li10        0.0928    0.2895    0.4096
Li    Li11        0.2063    0.2125    0.6566
Li    Li12        0.2093    0.3474    0.2923
Li    Li13        0.0353    0.3594    0.4656
Li    Li14        0.0887    0.3843    0.4069
Li    Li15        0.0377    0.3944    0.3379
Li    Li16        0.0380    0.3648    0.9631
Li    Li17        0.2083    0.4058    0.1578
Li    Li18        0.0885    0.4582    0.5420
Li    Li19        0.1654    0.5441    0.4648
Li    Li20        0.2135    0.5134    0.4130
Li    Li21        0.0896    0.6571    0.2913
Li    Li22        0.2883    0.0899    0.8447
Li    Li23        0.2871    0.1603    0.7183
Li    Li24        0.4094    0.1149    0.8392
Li    Li25        0.2869    0.1917    0.8392
Li    Li26        0.2914    0.2905    0.0955
Li    Li27        0.4120    0.2374    0.9631
Li    Li28        0.2973    0.3603    0.2213
Li    Li29        0.4114    0.3399    0.2150
Li    Li30        0.3351    0.3835    0.1618
Li    Li31        0.7079    0.0408    0.7819
Li    Li32        0.7279    0.3095    0.9192
Li    Li33        0.7884    0.0939    0.8405
Li    Li34        0.9498    0.2425    0.0267
Li    Li35        0.9131    0.2418    0.2146
Li    Li36        0.9634    0.2391    0.7854
Li    Li37        0.9102    0.2360    0.9590
Li    Li38        0.9153    0.2090    0.8327
Li    Li39        0.7902    0.2887    0.8409
Li    Li40        0.9587    0.3339    0.2839
Li    Li41        0.9207    0.3072    0.3473
Li    Li42        0.9150    0.3449    0.7208
Li    Li43        0.8321    0.3577    0.7805
Li    Li44        0.9595    0.4436    0.0326
Li    Li45        0.8385    0.4540    0.0360
Li    Li46        0.9622    0.4059    0.9093
Li    Li47        0.7865    0.9903    0.8340
Li    Li48        0.0531    0.0622    0.0615
Li    Li49        0.0804    0.0850    0.0648
Li    Li50        0.0691    0.0603    0.9405
Li    Li51        0.0446    0.0652    0.8060
Li    Li52        0.0417    0.0824    0.9286
Li    Li53        0.0829    0.0908    0.8238
Li    Li54        0.2097    0.1306    0.1957
Li    Li55        0.2056    0.1225    0.0619
Li    Li56        0.1774    0.1139    0.1838
Li    Li57        0.1775    0.1327    0.8132
Li    Li58        0.0423    0.1692    0.8099
Li    Li59        0.2011    0.1207    0.8152
Li    Li60        0.0636    0.2878    0.0577
Li    Li61        0.0843    0.2756    0.4468
Li    Li62        0.0412    0.2749    0.4216
Li    Li63        0.0803    0.2829    0.3180
Li    Li64        0.0760    0.3803    0.1882
Li    Li65        0.0400    0.3796    0.0509
Li    Li66        0.0706    0.3827    0.0617
Li    Li67        0.2107    0.3280    0.4499
Li    Li68        0.2050    0.3242    0.3291
Li    Li69        0.1742    0.3169    0.4389
Li    Li70        0.0746    0.3669    0.9372
Li    Li71        0.2076    0.3268    0.9466
Li    Li72        0.0452    0.3760    0.9345
Li    Li73        0.1808    0.3071    0.9353
Li    Li74        0.1757    0.4091    0.1850
Li    Li75        0.0672    0.4632    0.4318
Li    Li76        0.0518    0.4659    0.3110
Li    Li77        0.0366    0.4849    0.4286
Li    Li78        0.0552    0.4727    0.5569
Li    Li79        0.1731    0.5328    0.3118
Li    Li80        0.2096    0.5279    0.4467
Li    Li81        0.1693    0.5175    0.4333
Li    Li82        0.0395    0.6772    0.3056
Li    Li83        0.0831    0.6743    0.3238
Li    Li84        0.3218    0.1682    0.1833
Li    Li85        0.3001    0.1874    0.1910
Li    Li86        0.3242    0.1745    0.6956
Li    Li87        0.2894    0.1766    0.6842
Li    Li88        0.4204    0.1330    0.8126
Li    Li89        0.3320    0.1765    0.8268
Li    Li90        0.2902    0.2668    0.0626
Li    Li91        0.2986    0.2734    0.1795
Li    Li92        0.3288    0.2740    0.9410
Li    Li93        0.4551    0.2259    0.9406
Li    Li94        0.3054    0.2854    0.9338
Li    Li95        0.4242    0.2264    0.9302
Li    Li96        0.3196    0.3640    0.1866
Li    Li97        0.4460    0.3350    0.1860
Li    Li98        0.2923    0.3749    0.0517
Li    Li99        0.3262    0.3867    0.0683
Li    Li100        0.6781    0.0132    0.6941
Li    Li101        0.6693    0.0353    0.8092
Li    Li102        0.7058    0.1179    0.8186
Li    Li103        0.7089    0.3323    0.6924
Li    Li104        0.6779    0.3132    0.9372
Li    Li105        0.9268    0.0378    0.8107
Li    Li106        0.9430    0.0438    0.9401
Li    Li107        0.7910    0.0645    0.8041
Li    Li108        0.8324    0.0813    0.8179
Li    Li109        0.9189    0.0116    0.9323
Li    Li110        0.9305    0.2374    0.0619
Li    Li111        0.9516    0.2305    0.1897
Li    Li112        0.9484    0.2087    0.0617
Li    Li113        0.8202    0.2834    0.3026
Li    Li114        0.8323    0.2733    0.6950
Li    Li115        0.7938    0.2838    0.6848
Li    Li116        0.9543    0.2162    0.8164
Li    Li117        0.8340    0.2830    0.8251
Li    Li118        0.9310    0.3126    0.1895
Li    Li119        0.9189    0.3240    0.3080
Li    Li120        0.8034    0.3631    0.3125
Li    Li121        0.9588    0.3187    0.3203
Li    Li122        0.8264    0.3636    0.6909
Li    Li123        0.9581    0.3291    0.6944
Li    Li124        0.8038    0.3597    0.8094
Li    Li125        0.9186    0.4321    0.0615
Li    Li126        0.9527    0.4203    0.5602
Li    Li127        0.8229    0.4620    0.9374
Li    Li128        0.9586    0.4190    0.9424
Li    Li129        0.7968    0.4842    0.9382
Li    Li130        0.9149    0.4249    0.9265
Li    Li131        0.8286    0.9824    0.8191
Li    Li132        0.0083    0.0592    0.8036
Li    Li133        0.0044    0.0917    0.9295
Li    Li134        0.1180    0.0903    0.8218
Li    Li135        0.1313    0.1384    0.8043
Li    Li136        0.2442    0.1057    0.8150
Li    Li137        0.1154    0.2892    0.0640
Li    Li138        0.1229    0.2887    0.3147
Li    Li139        0.2429    0.2419    0.6953
Li    Li140        0.1236    0.3603    0.1927
Li    Li141        0.2363    0.3480    0.1880
Li    Li142        0.0039    0.3597    0.0568
Li    Li143        0.2474    0.3079    0.0684
Li    Li144        0.1302    0.3411    0.3048
Li    Li145        0.1076    0.3551    0.4436
Li    Li146        0.0088    0.3512    0.3085
Li    Li147        0.0063    0.3883    0.4298
Li    Li148        0.2440    0.3087    0.3248
Li    Li149        0.1197    0.3856    0.3198
Li    Li150        0.0067    0.3857    0.6790
Li    Li151        0.2444    0.3490    0.9516
Li    Li152        0.1286    0.3094    0.9287
Li    Li153        0.1171    0.4559    0.4417
Li    Li154        0.0074    0.4966    0.4287
Li    Li155        0.1172    0.4873    0.3223
Li    Li156        0.1295    0.4100    0.4312
Li    Li157        0.1299    0.5367    0.3097
Li    Li158        0.1182    0.5629    0.4380
Li    Li159        0.1295    0.5094    0.4314
Li    Li160        0.1230    0.6592    0.4415
Li    Li161        0.1176    0.6849    0.3240
Li    Li162        0.1292    0.6132    0.4248
Li    Li163        0.1315    0.7120    0.4275
Li    Li164        0.2536    0.0557    0.8128
Li    Li165        0.2564    0.1921    0.1820
Li    Li166        0.2538    0.1928    0.6795
Li    Li167        0.3689    0.1580    0.9416
Li    Li168        0.2610    0.1553    0.8059
Li    Li169        0.3877    0.1151    0.9358
Li    Li170        0.4954    0.2338    0.9458
Li    Li171        0.2568    0.2571    0.8053
Li    Li172        0.2587    0.2852    0.9308
Li    Li173        0.2537    0.3662    0.0511
Li    Li174        0.2559    0.3882    0.1814
Li    Li175        0.3820    0.4088    0.1783
Li    Li176        0.2579    0.4596    0.3052
Li    Li177        0.7447    0.1081    0.8229
Li    Li178        0.5090    0.3930    0.1784
Li    Li179        0.7447    0.3412    0.6909
Li    Li180        0.8807    0.0445    0.8042
Li    Li181        0.8687    0.0573    0.9460
Li    Li182        0.7551    0.0574    0.8063
Li    Li183        0.8674    0.0872    0.8206
Li    Li184        0.8751    0.1387    0.8045
Li    Li185        0.8693    0.1917    0.8187
Li    Li186        0.9881    0.2385    0.1925
Li    Li187        0.8769    0.2920    0.0707
Li    Li188        0.8749    0.2431    0.8053
Li    Li189        0.8666    0.2946    0.8206
Li    Li190        0.9817    0.3047    0.0608
Li    Li191        0.8793    0.3061    0.1825
Li    Li192        0.8781    0.3384    0.3077
Li    Li193        0.9946    0.3360    0.4501
Li    Li194        0.9987    0.3128    0.3276
Li    Li195        0.9929    0.3351    0.6950
Li    Li196        0.7560    0.3862    0.6793
Li    Li197        0.9928    0.3406    0.9378
Li    Li198        0.8719    0.3873    0.8203
Li    Li199        0.8807    0.4418    0.0558
Li    Li200        0.9954    0.4416    0.4460
Li    Li201        0.9942    0.4097    0.3182
Li    Li202        0.9944    0.4081    0.5630
Li    Li203        0.7543    0.4912    0.9293
Li    Li204        0.9923    0.4104    0.8201
Li    Li205        0.8813    0.4068    0.9394
Li    Li206        0.9951    0.7070    0.3160
Li    Li207        0.8642    0.9965    0.8177
Li    Li208        0.0853    0.0948    0.8565
Li    Li209        0.0382    0.1927    0.1431
Li    Li210        0.0438    0.2594    0.2741
Li    Li211        0.0379    0.3931    0.1413
Li    Li212        0.0860    0.3549    0.4836
Li    Li213        0.1607    0.3474    0.2678
Li    Li214        0.0385    0.3572    0.2653
Li    Li215        0.2090    0.3097    0.3572
Li    Li216        0.1682    0.3072    0.3973
Li    Li217        0.2123    0.3433    0.9819
Li    Li218        0.0391    0.4512    0.5153
Li    Li219        0.1615    0.5452    0.2678
Li    Li220        0.2076    0.5103    0.3568
Li    Li221        0.1630    0.6010    0.3954
Li    Li222        0.2939    0.1900    0.1438
Li    Li223        0.3389    0.1567    0.7330
Li    Li224        0.4134    0.1430    0.7674
Li    Li225        0.4167    0.1056    0.8930
Li    Li226        0.4161    0.2447    0.0176
Li    Li227        0.3369    0.2987    0.1097
Li    Li228        0.3333    0.3620    0.2292
Li    Li229        0.2894    0.3587    0.0199
Li    Li230        0.4598    0.3376    0.2312
Li    Li231        0.2877    0.3942    0.1455
Li    Li232        0.3350    0.3930    0.1064
Li    Li233        0.7093    0.0454    0.7279
Li    Li234        0.6647    0.1360    0.7720
Li    Li235        0.6672    0.3119    0.8978
Li    Li236        0.9121    0.0493    0.7663
Li    Li237        0.9633    0.0423    0.9849
Li    Li238        0.9133    0.1034    0.8949
Li    Li239        0.8321    0.2549    0.2314
Li    Li240        0.9148    0.2390    0.2689
Li    Li241        0.7939    0.2583    0.2697
Li    Li242        0.8344    0.2599    0.7336
Li    Li243        0.7905    0.2966    0.8953
Li    Li244        0.8282    0.3619    0.2290
Li    Li245        0.7887    0.3598    0.2683
Li    Li246        0.8346    0.3597    0.7315
Li    Li247        0.9578    0.4417    0.4756
Li    Li248        0.8340    0.4599    0.9815
Li    Li249        0.1304    0.0954    0.1597
Li    Li250        0.1293    0.0511    0.0277
Li    Li251        0.0077    0.0447    0.0326
Li    Li252        0.2469    0.0997    0.8444
Li    Li253        0.1334    0.0590    0.7884
Li    Li254        0.1184    0.1085    0.0957
Li    Li255        0.1214    0.1456    0.2217
Li    Li256        0.2437    0.1540    0.2228
Li    Li257        0.1274    0.1481    0.2681
Li    Li258        0.2447    0.1582    0.7133
Li    Li259        0.0106    0.1056    0.9092
Li    Li260        0.1208    0.1075    0.8443
Li    Li261        0.1306    0.1550    0.7845
Li    Li262        0.9996    0.2087    0.1549
Li    Li263        0.2542    0.2939    0.0935
Li    Li264        0.2480    0.2953    0.3468
Li    Li265        0.1298    0.3016    0.4103
Li    Li266        0.0032    0.2427    0.2812
Li    Li267        0.2403    0.2925    0.8425
Li    Li268        0.2498    0.2558    0.9690
Li    Li269        0.2418    0.3948    0.0961
Li    Li270        0.1142    0.3065    0.0963
Li    Li271        0.1262    0.3927    0.1599
Li    Li272        0.1268    0.3444    0.2177
Li    Li273        0.2491    0.3522    0.2235
Li    Li274        0.0037    0.3435    0.0329
Li    Li275        0.0011    0.3010    0.4068
Li    Li276        0.1228    0.3060    0.3379
Li    Li277        0.1306    0.3936    0.4043
Li    Li278        0.1279    0.3513    0.2782
Li    Li279        0.1240    0.3448    0.4664
Li    Li280        0.0056    0.3393    0.2843
Li    Li281        0.1247    0.3547    0.5290
Li    Li282        0.1183    0.3436    0.9622
Li    Li283        0.0016    0.4073    0.1525
Li    Li284        0.1217    0.4024    0.0943
Li    Li285        0.2478    0.4549    0.2191
Li    Li286        0.2441    0.4938    0.3364
Li    Li287        0.1360    0.4943    0.4127
Li    Li288        0.1289    0.4514    0.2835
Li    Li289        0.1145    0.4393    0.4643
Li    Li290        0.0088    0.4375    0.2841
Li    Li291        0.0064    0.4102    0.6529
Li    Li292        0.0106    0.4449    0.5295
Li    Li293        0.0059    0.4089    0.9047
Li    Li294        0.0013    0.5077    0.4054
Li    Li295        0.1194    0.5039    0.3457
Li    Li296        0.1254    0.6947    0.4026
Li    Li297        0.1345    0.6553    0.2887
Li    Li298        0.0089    0.6442    0.2854
Li    Li299        0.1113    0.7127    0.3459
Li    Li300        0.2497    0.1073    0.1631
Li    Li301        0.3719    0.1522    0.0308
Li    Li302        0.3772    0.1503    0.7201
Li    Li303        0.2579    0.1052    0.9099
Li    Li304        0.3660    0.1059    0.8449
Li    Li305        0.3788    0.1976    0.9055
Li    Li306        0.3769    0.1435    0.9763
Li    Li307        0.3795    0.2627    0.0314
Li    Li308        0.2564    0.2523    0.0244
Li    Li309        0.2472    0.2028    0.6557
Li    Li310        0.3702    0.2030    0.8470
Li    Li311        0.3748    0.2471    0.9741
Li    Li312        0.2578    0.2454    0.7823
Li    Li313        0.2588    0.3084    0.1615
Li    Li314        0.3704    0.3387    0.2228
Li    Li315        0.4972    0.3522    0.2177
Li    Li316        0.2535    0.3479    0.0336
Li    Li317        0.3819    0.3562    0.2790
Li    Li318        0.2472    0.3036    0.9045
Li    Li319        0.2561    0.4030    0.1551
Li    Li320        0.2598    0.4469    0.2781
Li    Li321        0.7476    0.3514    0.7204
Li    Li322        0.8675    0.0046    0.8432
Li    Li323        0.8815    0.0907    0.9112
Li    Li324        0.8848    0.0590    0.7781
Li    Li325        0.8690    0.0448    0.9685
Li    Li326        0.9943    0.0545    0.9683
Li    Li327        0.7554    0.0428    0.7848
Li    Li328        0.9977    0.2026    0.0956
Li    Li329        0.8729    0.1057    0.8426
Li    Li330        0.8731    0.1568    0.7823
Li    Li331        0.9910    0.2926    0.0949
Li    Li332        0.8744    0.2939    0.1559
Li    Li333        0.8775    0.2604    0.0276
Li    Li334        0.8715    0.2487    0.2235
Li    Li335        0.9989    0.2494    0.2226
Li    Li336        0.0007    0.2947    0.3455
Li    Li337        0.8761    0.2558    0.2834
Li    Li338        0.8737    0.2471    0.7189
Li    Li339        0.8686    0.2078    0.8375
Li    Li340        0.8754    0.2550    0.7817
Li    Li341        0.8701    0.2459    0.9702
Li    Li342        0.9945    0.3959    0.0893
Li    Li343        0.8704    0.3079    0.0965
Li    Li344        0.8652    0.3430    0.2214
Li    Li345        0.8715    0.2973    0.3433
Li    Li346        0.8848    0.3539    0.2834
Li    Li347        0.7567    0.3420    0.2789
Li    Li348        0.7532    0.3043    0.6553
Li    Li349        0.9964    0.3993    0.5915
Li    Li350        0.8803    0.3416    0.7179
Li    Li351        0.7584    0.3047    0.9025
Li    Li352        0.9970    0.3915    0.8458
Li    Li353        0.8704    0.3028    0.8485
Li    Li354        0.8819    0.3924    0.9119
Li    Li355        0.8767    0.3526    0.7816
Li    Li356        0.9962    0.3566    0.9691
Li    Li357        0.7538    0.3438    0.7787
Li    Li358        0.8857    0.4575    0.0371
Li    Li359        0.8729    0.3980    0.8486
Li    Li360        0.8685    0.4417    0.9660
Li    Li361        0.8799    0.9939    0.9024
Li    Li362        0.8780    0.9536    0.7898
