data_taken_from_RMCProfile_configurations
_audit_creation_method  'by_Configurations_averaging'
_publ_section_comment
;
  (Configuration used: ytso_1p0.cif )
;
_cell_length_a                     10.3007
_cell_length_b                     10.3007
_cell_length_c                     10.3007
_cell_angle_alpha                  90.0000
_cell_angle_beta                   90.0000
_cell_angle_gamma                  90.0000

_symmetry_space_group_name_H-M    'P 1'
_symmetry_Int_Tables_number         1
_symmetry_cell_setting             triclinic
loop_
_symmetry_equiv_pos_as_xyz
'+x,+y,+z'

loop_
_atom_site_label
_atom_site_type_symbol
_atom_site_occupancy
_atom_site_fract_x
_atom_site_fract_y
_atom_site_fract_z
   Yb1    Yb 1.0000      0.4998    0.5005    0.5000
   Sn2    Sn 1.0000     -0.0000   -0.0003   -0.0001
    O3     O 1.0000      0.3385    0.1248    0.1247
    O4     O 1.0000      0.3752    0.3748    0.3746
    O5     O 1.0000      0.6618    0.8750    0.8752
    O6     O 1.0000      0.6251    0.6246    0.6247
   Yb7    Yb 1.0000      0.2501    0.7499    0.0000
   Sn8    Sn 1.0000      0.7504    0.2501    0.5000
    O9     O 1.0000      0.4116    0.1249    0.6252
    O10    O 1.0000      0.3749    0.8748    0.8746
   Yb11   Yb 1.0000      0.7498    0.2503    0.0001
   Sn12   Sn 1.0000      0.2498    0.7504    0.5000
    O13    O 1.0000      0.5890    0.8754    0.3746
    O14    O 1.0000      0.6250    0.1246    0.1249
   Yb15   Yb 1.0000      0.7503    0.0000    0.2504
   Sn16   Sn 1.0000      0.2501    0.4999    0.7499
    O17    O 1.0000      0.9116    0.6247    0.6247
    O18    O 1.0000      0.8750    0.8746    0.3750
   Yb19   Yb 1.0000      0.2500    0.0003    0.7501
   Sn20   Sn 1.0000      0.7499    0.4999    0.2500
    O21    O 1.0000      0.0885    0.3750    0.3749
    O22    O 1.0000      0.1251    0.1249    0.6249
   Yb23   Yb 1.0000      0.0002    0.2498    0.7505
   Sn24   Sn 1.0000      0.5003    0.7499    0.2498
    O25    O 1.0000      0.8386    0.6250    0.1249
    O26    O 1.0000      0.8753    0.3746    0.8751
   Yb27   Yb 1.0000     -0.0001    0.7503    0.2501
   Sn28   Sn 1.0000      0.5001    0.2504    0.7502
    O29    O 1.0000      0.1614    0.3747    0.8750
    O30    O 1.0000      0.1252    0.6245    0.1247
    O31    O 1.0000      0.1249    0.3389    0.1248
    O32    O 1.0000      0.8751    0.6615    0.8751
    O33    O 1.0000      0.6252    0.4116    0.1246
    O34    O 1.0000      0.3751    0.5888    0.8747
    O35    O 1.0000      0.6248    0.9114    0.6252
    O36    O 1.0000      0.3748    0.0886    0.3751
    O37    O 1.0000      0.1247    0.8389    0.6247
    O38    O 1.0000      0.8748    0.1617    0.3749
    O39    O 1.0000      0.1250    0.1247    0.3387
    O40    O 1.0000      0.8749    0.8751    0.6617
    O41    O 1.0000      0.1250    0.6247    0.4111
    O42    O 1.0000      0.8749    0.3751    0.5884
    O43    O 1.0000      0.6251    0.6246    0.9112
    O44    O 1.0000      0.3750    0.3747    0.0884
    O45    O 1.0000      0.6251    0.1249    0.8387
    O46    O 1.0000      0.3748    0.8749    0.1616
    O47    O 1.0000      0.8748    0.5884    0.3748
    O48    O 1.0000      0.1252    0.4114    0.6244
    O49    O 1.0000      0.3751    0.1620    0.8748
    O50    O 1.0000      0.6250    0.8388    0.1252
    O51    O 1.0000      0.1613    0.8749    0.3746
    O52    O 1.0000      0.8388    0.1248    0.6249
    O53    O 1.0000      0.5889    0.3754    0.8748
    O54    O 1.0000      0.4117    0.6248    0.1250
    O55    O 1.0000      0.8749    0.3748    0.1616
    O56    O 1.0000      0.1252    0.6249    0.8384
    O57    O 1.0000      0.3751    0.8753    0.5887
    O58    O 1.0000      0.6252    0.1250    0.4116
   Yb59   Yb 1.0000      0.4996   -0.0000    0.0001
   Sn60   Sn 1.0000      0.0000    0.4999    0.5003
    O61    O 1.0000      0.3385    0.6248    0.6245
    O62    O 1.0000      0.6616    0.3747    0.3750
   Yb63   Yb 1.0000      0.2502    0.2502    0.5003
   Sn64   Sn 1.0000      0.7499    0.7498   -0.0002
   Yb65   Yb 1.0000      0.7499    0.7500    0.5000
   Sn66   Sn 1.0000      0.2500    0.2499    0.0001
   Yb67   Yb 1.0000      0.7505    0.5004    0.7499
   Sn68   Sn 1.0000      0.2501    0.0001    0.2499
    O69    O 1.0000      0.9115    0.1247    0.1250
   Yb70   Yb 1.0000      0.2499    0.5002    0.2504
   Sn71   Sn 1.0000      0.7499   -0.0002    0.7501
    O72    O 1.0000      0.0883    0.8749    0.8748
    O73    O 1.0000      0.1251    0.1249    0.9118
    O74    O 1.0000      0.8749    0.8745    0.0888
    O75    O 1.0000      0.6250    0.6247    0.3387
    O76    O 1.0000      0.3751    0.3749    0.6610
    O77    O 1.0000      0.8751    0.0886    0.8751
    O78    O 1.0000      0.1251    0.9114    0.1252
    O79    O 1.0000      0.3747    0.6620    0.3747
    O80    O 1.0000      0.6252    0.3386    0.6251
   Yb81   Yb 1.0000     -0.0000    0.5002    0.0001
   Sn82   Sn 1.0000      0.5001    0.0001    0.5001
   Yb83   Yb 1.0000      0.5001    0.2501    0.2502
   Sn84   Sn 1.0000      0.0002    0.7496    0.7498
   Yb85   Yb 1.0000      0.4996    0.7500    0.7499
   Sn86   Sn 1.0000      0.0000    0.2499    0.2499
   Yb87   Yb 1.0000      0.0001    0.0000    0.5001
   Sn88   Sn 1.0000      0.4998    0.4997   -0.0002

loop_
_atom_site_aniso_label
_atom_site_aniso_U_11
_atom_site_aniso_U_22
_atom_site_aniso_U_33
_atom_site_aniso_U_23
_atom_site_aniso_U_13
_atom_site_aniso_U_12
   Yb1      0.0068     0.0082     0.0106    -0.0006    -0.0014    -0.0023
   Sn2      0.0034     0.0048     0.0050    -0.0005    -0.0004    -0.0014
    O3      0.0092     0.0075     0.0085     0.0029    -0.0006    -0.0004
    O4      0.0076     0.0070     0.0075     0.0002    -0.0004    -0.0005
    O5      0.0089     0.0080     0.0087     0.0028    -0.0003    -0.0004
    O6      0.0056     0.0064     0.0079     0.0004    -0.0008    -0.0003
   Yb7      0.0071     0.0087     0.0099     0.0006     0.0004    -0.0020
   Sn8      0.0033     0.0044     0.0049     0.0005    -0.0001    -0.0011
    O9      0.0086     0.0077     0.0084    -0.0026    -0.0001    -0.0003
    O10     0.0065     0.0069     0.0075    -0.0001    -0.0008    -0.0005
   Yb11     0.0059     0.0095     0.0091     0.0011     0.0006    -0.0018
   Sn12     0.0031     0.0044     0.0055     0.0006     0.0000    -0.0010
    O13     0.0083     0.0084     0.0078    -0.0028     0.0003    -0.0009
    O14     0.0060     0.0064     0.0074     0.0001    -0.0001    -0.0000
   Yb15     0.0060     0.0088     0.0097     0.0015    -0.0009    -0.0003
   Sn16     0.0033     0.0043     0.0056     0.0002    -0.0010    -0.0007
    O17     0.0087     0.0078     0.0085    -0.0017    -0.0002    -0.0006
    O18     0.0073     0.0072     0.0075     0.0008    -0.0009    -0.0007
   Yb19     0.0064     0.0089     0.0096     0.0003    -0.0017     0.0003
   Sn20     0.0032     0.0042     0.0051     0.0005    -0.0006    -0.0005
    O21     0.0094     0.0072     0.0082    -0.0028    -0.0006    -0.0005
    O22     0.0060     0.0072     0.0066     0.0001    -0.0005    -0.0001
   Yb23     0.0053     0.0078     0.0109    -0.0005     0.0001    -0.0001
   Sn24     0.0036     0.0044     0.0046    -0.0004     0.0001    -0.0005
    O25     0.0078     0.0090     0.0086     0.0039    -0.0002    -0.0007
    O26     0.0071     0.0076     0.0087     0.0001    -0.0002    -0.0011
   Yb27     0.0063     0.0094     0.0097    -0.0009     0.0002    -0.0009
   Sn28     0.0032     0.0047     0.0048    -0.0003    -0.0001    -0.0004
    O29     0.0088     0.0076     0.0078     0.0030    -0.0001    -0.0005
    O30     0.0060     0.0070     0.0079    -0.0000    -0.0003    -0.0005
    O31     0.0074     0.0100     0.0074     0.0004     0.0028    -0.0006
    O32     0.0068     0.0092     0.0082     0.0005     0.0025    -0.0003
    O33     0.0067     0.0102     0.0083     0.0003    -0.0030    -0.0003
    O34     0.0065     0.0090     0.0085     0.0004    -0.0036    -0.0004
    O35     0.0076     0.0102     0.0087     0.0002    -0.0031    -0.0006
    O36     0.0069     0.0087     0.0082     0.0004    -0.0030    -0.0001
    O37     0.0067     0.0102     0.0075     0.0007     0.0015    -0.0007
    O38     0.0064     0.0091     0.0072     0.0006     0.0022    -0.0004
    O39     0.0070     0.0078     0.0094     0.0001    -0.0006     0.0021
    O40     0.0065     0.0080     0.0098     0.0004     0.0001     0.0019
    O41     0.0066     0.0082     0.0102     0.0003    -0.0000    -0.0029
    O42     0.0068     0.0072     0.0098    -0.0006    -0.0002    -0.0026
    O43     0.0068     0.0080     0.0099     0.0004    -0.0001    -0.0033
    O44     0.0067     0.0073     0.0097     0.0008    -0.0003    -0.0033
    O45     0.0069     0.0073     0.0093    -0.0001    -0.0006     0.0021
    O46     0.0068     0.0078     0.0091     0.0007    -0.0001     0.0020
    O47     0.0069     0.0091     0.0085     0.0005    -0.0030    -0.0005
    O48     0.0069     0.0101     0.0082     0.0000    -0.0029    -0.0007
    O49     0.0073     0.0087     0.0080     0.0002     0.0019    -0.0000
    O50     0.0069     0.0086     0.0086     0.0004     0.0021    -0.0007
    O51     0.0083     0.0080     0.0084     0.0026    -0.0002    -0.0004
    O52     0.0079     0.0083     0.0086     0.0036    -0.0003    -0.0005
    O53     0.0091     0.0076     0.0083    -0.0031    -0.0009    -0.0005
    O54     0.0092     0.0072     0.0086    -0.0026    -0.0001    -0.0007
    O55     0.0069     0.0073     0.0106    -0.0001    -0.0000     0.0023
    O56     0.0067     0.0078     0.0097     0.0003     0.0002     0.0022
    O57     0.0066     0.0074     0.0086     0.0004    -0.0006    -0.0030
    O58     0.0068     0.0078     0.0098     0.0002    -0.0006    -0.0032
   Yb59     0.0060     0.0096     0.0093    -0.0011    -0.0009    -0.0022
   Sn60     0.0032     0.0049     0.0051    -0.0002    -0.0005    -0.0011
    O61     0.0088     0.0093     0.0086     0.0032    -0.0005    -0.0013
    O62     0.0075     0.0076     0.0080     0.0024    -0.0002    -0.0004
   Yb63     0.0065     0.0097     0.0101     0.0013     0.0004    -0.0017
   Sn64     0.0033     0.0048     0.0053     0.0006    -0.0000    -0.0011
   Yb65     0.0063     0.0085     0.0102     0.0016     0.0003    -0.0018
   Sn66     0.0035     0.0040     0.0048     0.0004    -0.0001    -0.0010
   Yb67     0.0064     0.0087     0.0095     0.0013    -0.0013    -0.0005
   Sn68     0.0034     0.0044     0.0049     0.0004    -0.0008    -0.0006
    O69     0.0084     0.0079     0.0091    -0.0030    -0.0006    -0.0007
   Yb70     0.0062     0.0089     0.0092     0.0015    -0.0012    -0.0005
   Sn71     0.0028     0.0049     0.0049     0.0007    -0.0005    -0.0006
    O72     0.0078     0.0079     0.0084    -0.0033    -0.0005    -0.0004
    O73     0.0063     0.0080     0.0097    -0.0002    -0.0001    -0.0035
    O74     0.0066     0.0075     0.0094     0.0004    -0.0005    -0.0032
    O75     0.0063     0.0080     0.0096    -0.0003    -0.0003     0.0017
    O76     0.0072     0.0072     0.0091     0.0004    -0.0001     0.0024
    O77     0.0065     0.0097     0.0079     0.0001    -0.0029    -0.0006
    O78     0.0069     0.0098     0.0084     0.0004    -0.0028    -0.0007
    O79     0.0069     0.0083     0.0080    -0.0003     0.0028    -0.0006
    O80     0.0074     0.0081     0.0086     0.0004     0.0028     0.0000
   Yb81     0.0062     0.0091     0.0096    -0.0009    -0.0010    -0.0023
   Sn82     0.0033     0.0051     0.0047    -0.0002    -0.0006    -0.0012
   Yb83     0.0062     0.0086     0.0095    -0.0003     0.0006    -0.0003
   Sn84     0.0034     0.0046     0.0045    -0.0002     0.0001    -0.0007
   Yb85     0.0059     0.0092     0.0099     0.0002     0.0007    -0.0008
   Sn86     0.0032     0.0043     0.0055    -0.0002    -0.0001    -0.0006
   Yb87     0.0054     0.0091     0.0097    -0.0013    -0.0012    -0.0018
   Sn88     0.0030     0.0043     0.0045    -0.0000    -0.0004    -0.0010
