data_taken_from_RMCProfile_configurations
_audit_creation_method  'by_Configurations_averaging'
_publ_section_comment
;
  (Configuration used: ytso_0p2_all.cif )
;
_cell_length_a                     10.0823
_cell_length_b                     10.0823
_cell_length_c                     10.0823
_cell_angle_alpha                  90.0000
_cell_angle_beta                   90.0000
_cell_angle_gamma                  90.0000

_symmetry_space_group_name_H-M    'P 1'
_symmetry_Int_Tables_number         1
_symmetry_cell_setting             triclinic
loop_
_symmetry_equiv_pos_as_xyz
'+x,+y,+z'

loop_
_atom_site_label
_atom_site_type_symbol
_atom_site_occupancy
_atom_site_fract_x
_atom_site_fract_y
_atom_site_fract_z
    O1     O 1.0000      0.3741    0.3752    0.3753
    O2     O 1.0000      0.3349    0.1237    0.1243
   Ti3    Ti 1.0000     -0.0001    0.0008   -0.0005
   Yb4    Yb 1.0000      0.5009    0.5007    0.5005
    O5     O 1.0000      0.6247    0.6249    0.6250
    O6     O 1.0000      0.6663    0.8758    0.8740
    O7     O 1.0000      0.3748    0.8749    0.8740
    O8     O 1.0000      0.4142    0.1246    0.6256
   Ti9    Ti 1.0000      0.7500    0.2488    0.5006
   Yb10   Yb 1.0000      0.2511    0.7506   -0.0001
    O11    O 1.0000      0.6243    0.1251    0.1261
    O12    O 1.0000      0.5844    0.8760    0.3745
   Ti13   Ti 1.0000      0.2489    0.7494    0.5004
   Yb14   Yb 1.0000      0.7498    0.2500   -0.0000
    O15    O 1.0000      0.8753    0.8746    0.3758
    O16    O 1.0000      0.9141    0.6243    0.6255
   Ti17   Ti 1.0000      0.2496    0.4999    0.7493
   Yb18   Yb 1.0000      0.7518    0.0005    0.2508
    O19    O 1.0000      0.1255    0.1248    0.6249
    O20    O 1.0000      0.0835    0.3758    0.3744
   Ti21   Ti 1.0000      0.7494    0.5009    0.2501
   Yb22   Yb 1.0000      0.2513    0.0002    0.7506
    O23    O 1.0000      0.8759    0.3746    0.8748
    O24    O 1.0000      0.8358    0.6249    0.1255
   Ti25   Ti 1.0000      0.5004    0.7497    0.2493
   Yb26   Yb 1.0000     -0.0006    0.2485    0.7490
    O27    O 1.0000      0.1262    0.6252    0.1249
    O28    O 1.0000      0.1657    0.3744    0.8743
   Ti29   Ti 1.0000      0.4997    0.2501    0.7496
   Yb30   Yb 1.0000     -0.0001    0.7498    0.2503
    O31    O 1.0000      0.1254    0.3356    0.1255
    O32    O 1.0000      0.8755    0.6642    0.8745
    O33    O 1.0000      0.6255    0.4137    0.1243
    O34    O 1.0000      0.3748    0.5849    0.8752
    O35    O 1.0000      0.6245    0.9137    0.6242
    O36    O 1.0000      0.3748    0.0848    0.3745
    O37    O 1.0000      0.1254    0.8360    0.6247
    O38    O 1.0000      0.8757    0.1646    0.3754
    O39    O 1.0000      0.1252    0.1252    0.3339
    O40    O 1.0000      0.8756    0.8750    0.6659
    O41    O 1.0000      0.1246    0.6254    0.4144
    O42    O 1.0000      0.8755    0.3739    0.5846
    O43    O 1.0000      0.6250    0.6241    0.9152
    O44    O 1.0000      0.3752    0.3743    0.0854
    O45    O 1.0000      0.6241    0.1254    0.8346
    O46    O 1.0000      0.3751    0.8756    0.1656
    O47    O 1.0000      0.8750    0.5853    0.3751
    O48    O 1.0000      0.1254    0.4140    0.6244
    O49    O 1.0000      0.3753    0.1649    0.8747
    O50    O 1.0000      0.6255    0.8365    0.1248
    O51    O 1.0000      0.1660    0.8744    0.3739
    O52    O 1.0000      0.8357    0.1243    0.6251
    O53    O 1.0000      0.5842    0.3758    0.8751
    O54    O 1.0000      0.4152    0.6244    0.1254
    O55    O 1.0000      0.8762    0.3753    0.1655
    O56    O 1.0000      0.1254    0.6248    0.8350
    O57    O 1.0000      0.3757    0.8751    0.5845
    O58    O 1.0000      0.6248    0.1248    0.4136
    O59    O 1.0000      0.3360    0.6247    0.6253
   Ti60   Ti 1.0000      0.0007    0.5010    0.5006
   Yb61   Yb 1.0000      0.5003   -0.0006   -0.0012
    O62    O 1.0000      0.6657    0.3757    0.3744
   Ti63   Ti 1.0000      0.7503    0.7502    0.0006
   Yb64   Yb 1.0000      0.2497    0.2501    0.4990
   Ti65   Ti 1.0000      0.2499    0.2497    0.0006
   Yb66   Yb 1.0000      0.7495    0.7501    0.5005
    O67    O 1.0000      0.9146    0.1254    0.1256
   Ti68   Ti 1.0000      0.2493    0.0008    0.2494
   Yb69   Yb 1.0000      0.7505    0.5007    0.7511
    O70    O 1.0000      0.0854    0.8758    0.8751
   Ti71   Ti 1.0000      0.7502   -0.0003    0.7502
   Yb72   Yb 1.0000      0.2502    0.5009    0.2505
    O73    O 1.0000      0.1245    0.1250    0.9137
    O74    O 1.0000      0.8770    0.8745    0.0874
    O75    O 1.0000      0.6252    0.6261    0.3357
    O76    O 1.0000      0.3756    0.3761    0.6653
    O77    O 1.0000      0.8744    0.0854    0.8749
    O78    O 1.0000      0.1247    0.9129    0.1254
    O79    O 1.0000      0.3758    0.6650    0.3755
    O80    O 1.0000      0.6252    0.3364    0.6256
   Ti81   Ti 1.0000      0.5002    0.0011    0.4999
   Yb82   Yb 1.0000      0.0005    0.5002   -0.0007
   Ti83   Ti 1.0000     -0.0001    0.7504    0.7493
   Yb84   Yb 1.0000      0.4993    0.2485    0.2495
   Ti85   Ti 1.0000      0.0004    0.2497    0.2494
   Yb86   Yb 1.0000      0.4993    0.7499    0.7507
   Ti87   Ti 1.0000      0.4999    0.5008   -0.0006
   Yb88   Yb 1.0000      0.0006   -0.0000    0.4997

loop_
_atom_site_aniso_label
_atom_site_aniso_U_11
_atom_site_aniso_U_22
_atom_site_aniso_U_33
_atom_site_aniso_U_23
_atom_site_aniso_U_13
_atom_site_aniso_U_12
    O1      0.0291     0.0466     0.0332    -0.0005     0.0044     0.0068
    O2      0.0435     0.0384     0.0288     0.0078     0.0008     0.0032
   Ti3      0.0157     0.0218     0.0170     0.0012     0.0025     0.0045
   Yb4      0.0377     0.0569     0.0394     0.0029     0.0082     0.0056
    O5      0.0315     0.0572     0.0361    -0.0018     0.0024     0.0053
    O6      0.0425     0.0342     0.0231     0.0064    -0.0002    -0.0030
    O7      0.0296     0.0413     0.0330    -0.0008     0.0020     0.0027
    O8      0.0397     0.0360     0.0251    -0.0059    -0.0017     0.0046
   Ti9      0.0141     0.0201     0.0158     0.0001     0.0003     0.0026
   Yb10     0.0333     0.0538     0.0333    -0.0011     0.0029     0.0093
    O11     0.0290     0.0443     0.0348    -0.0010     0.0021    -0.0008
    O12     0.0556     0.0407     0.0328    -0.0081     0.0045     0.0031
   Ti13     0.0160     0.0230     0.0215    -0.0004     0.0003     0.0003
   Yb14     0.0333     0.0484     0.0379     0.0005     0.0049     0.0018
    O15     0.0277     0.0408     0.0287    -0.0025     0.0042     0.0026
    O16     0.0479     0.0413     0.0288    -0.0074     0.0019     0.0065
   Ti17     0.0186     0.0249     0.0170     0.0009     0.0027     0.0003
   Yb18     0.0290     0.0589     0.0266    -0.0017     0.0073     0.0009
    O19     0.0326     0.0415     0.0343     0.0021     0.0059     0.0030
    O20     0.0440     0.0412     0.0297    -0.0071     0.0043     0.0054
   Ti21     0.0185     0.0274     0.0173    -0.0021     0.0041     0.0022
   Yb22     0.0382     0.0505     0.0313     0.0008     0.0096     0.0029
    O23     0.0371     0.0521     0.0365    -0.0040     0.0047    -0.0002
    O24     0.0435     0.0335     0.0236     0.0043     0.0034     0.0064
   Ti25     0.0160     0.0253     0.0165     0.0013    -0.0029     0.0022
   Yb26     0.0252     0.0521     0.0393     0.0060     0.0027     0.0011
    O27     0.0303     0.0479     0.0278    -0.0013     0.0052     0.0011
    O28     0.0463     0.0373     0.0227     0.0077    -0.0002     0.0040
   Ti29     0.0142     0.0202     0.0178     0.0015    -0.0031     0.0007
   Yb30     0.0322     0.0595     0.0339     0.0072     0.0041    -0.0031
    O31     0.0289     0.0627     0.0332     0.0017     0.0126     0.0018
    O32     0.0302     0.0755     0.0288     0.0023     0.0110     0.0013
    O33     0.0276     0.0647     0.0305     0.0042    -0.0095     0.0005
    O34     0.0240     0.0607     0.0279    -0.0011    -0.0011     0.0002
    O35     0.0296     0.0659     0.0306     0.0068    -0.0052     0.0021
    O36     0.0246     0.0633     0.0336    -0.0022    -0.0023     0.0015
    O37     0.0244     0.0531     0.0240    -0.0017     0.0079     0.0032
    O38     0.0334     0.0603     0.0330    -0.0027     0.0114     0.0023
    O39     0.0241     0.0361     0.0484    -0.0024     0.0013     0.0046
    O40     0.0301     0.0445     0.0460    -0.0009    -0.0005     0.0124
    O41     0.0235     0.0347     0.0419    -0.0028     0.0037    -0.0026
    O42     0.0311     0.0391     0.0497    -0.0035     0.0064    -0.0061
    O43     0.0271     0.0347     0.0478     0.0033     0.0078    -0.0052
    O44     0.0289     0.0415     0.0488     0.0003     0.0041    -0.0016
    O45     0.0274     0.0305     0.0408    -0.0030     0.0003     0.0093
    O46     0.0307     0.0317     0.0493     0.0016     0.0057     0.0072
    O47     0.0340     0.0644     0.0282     0.0010    -0.0041    -0.0001
    O48     0.0343     0.0634     0.0260     0.0019    -0.0057    -0.0058
    O49     0.0233     0.0495     0.0214     0.0005     0.0019     0.0026
    O50     0.0263     0.0620     0.0256    -0.0041     0.0077     0.0000
    O51     0.0450     0.0340     0.0238     0.0061     0.0030     0.0009
    O52     0.0407     0.0426     0.0270     0.0059     0.0004    -0.0017
    O53     0.0561     0.0457     0.0367    -0.0125     0.0051     0.0049
    O54     0.0440     0.0366     0.0301    -0.0069     0.0017     0.0111
    O55     0.0268     0.0365     0.0564    -0.0007    -0.0026     0.0106
    O56     0.0268     0.0323     0.0483     0.0013     0.0053     0.0055
    O57     0.0334     0.0421     0.0455     0.0013     0.0074    -0.0060
    O58     0.0323     0.0366     0.0501    -0.0024     0.0052    -0.0061
    O59     0.0464     0.0403     0.0264     0.0034    -0.0022     0.0019
   Ti60     0.0175     0.0221     0.0201    -0.0001     0.0031     0.0021
   Yb61     0.0328     0.0444     0.0343     0.0005     0.0058     0.0036
    O62     0.0464     0.0395     0.0305     0.0067     0.0013    -0.0031
   Ti63     0.0180     0.0194     0.0176     0.0009    -0.0019     0.0012
   Yb64     0.0312     0.0481     0.0373     0.0003     0.0027     0.0028
   Ti65     0.0183     0.0217     0.0188     0.0019    -0.0013     0.0035
   Yb66     0.0438     0.0581     0.0409     0.0003     0.0071     0.0058
    O67     0.0448     0.0387     0.0308    -0.0020    -0.0024     0.0020
   Ti68     0.0150     0.0254     0.0188     0.0020     0.0038     0.0038
   Yb69     0.0358     0.0502     0.0304    -0.0023     0.0045     0.0029
    O70     0.0505     0.0409     0.0306    -0.0046     0.0051     0.0077
   Ti71     0.0179     0.0208     0.0135     0.0004     0.0025     0.0022
   Yb72     0.0306     0.0483     0.0361    -0.0072     0.0060     0.0060
    O73     0.0257     0.0409     0.0492     0.0003     0.0030    -0.0057
    O74     0.0367     0.0453     0.0659    -0.0035     0.0080    -0.0108
    O75     0.0279     0.0339     0.0545    -0.0002     0.0036     0.0083
    O76     0.0246     0.0348     0.0493    -0.0042     0.0006     0.0087
    O77     0.0299     0.0737     0.0269    -0.0029    -0.0039     0.0033
    O78     0.0305     0.0680     0.0252    -0.0032    -0.0042     0.0018
    O79     0.0271     0.0642     0.0291    -0.0041     0.0087     0.0029
    O80     0.0278     0.0600     0.0262    -0.0008     0.0089    -0.0001
   Ti81     0.0177     0.0247     0.0169     0.0012     0.0033     0.0049
   Yb82     0.0313     0.0520     0.0347    -0.0032     0.0083     0.0016
   Ti83     0.0146     0.0236     0.0179    -0.0005    -0.0002     0.0009
   Yb84     0.0333     0.0483     0.0341     0.0046     0.0010     0.0047
   Ti85     0.0160     0.0230     0.0179     0.0027    -0.0011    -0.0011
   Yb86     0.0341     0.0525     0.0359     0.0019     0.0010    -0.0039
   Ti87     0.0163     0.0208     0.0195     0.0008     0.0028     0.0027
   Yb88     0.0372     0.0493     0.0393    -0.0042     0.0040     0.0020
