data_taken_from_RMCProfile_configurations
_audit_creation_method  'by_Configurations_averaging'
_publ_section_comment
;
  (Configuration used: ytso_0p5_Ti_only.cif )
;
_cell_length_a                     10.1656
_cell_length_b                     10.1656
_cell_length_c                     10.1656
_cell_angle_alpha                  90.0000
_cell_angle_beta                   90.0000
_cell_angle_gamma                  90.0000

_symmetry_space_group_name_H-M    'P 1'
_symmetry_Int_Tables_number         1
_symmetry_cell_setting             triclinic
loop_
_symmetry_equiv_pos_as_xyz
'+x,+y,+z'

loop_
_atom_site_label
_atom_site_type_symbol
_atom_site_occupancy
_atom_site_fract_x
_atom_site_fract_y
_atom_site_fract_z
    O1     O 1.0000      0.3748    0.3753    0.3748
    O2     O 1.0000      0.3354    0.1249    0.1251
   Sn3    Sn 1.0000     -0.0003    0.0003   -0.0001
   Yb4    Yb 1.0000      0.4998    0.5003    0.5005
    O5     O 1.0000      0.6255    0.6251    0.6252
    O6     O 1.0000      0.6647    0.8748    0.8747
    O7     O 1.0000      0.3758    0.8749    0.8750
    O8     O 1.0000      0.4148    0.1249    0.6250
   Sn9    Sn 1.0000      0.7494    0.2500    0.5000
   Yb10   Yb 1.0000      0.2507    0.7500   -0.0001
    O11    O 1.0000      0.6244    0.1256    0.1250
    O12    O 1.0000      0.5853    0.8750    0.3749
   Sn13   Sn 1.0000      0.2498    0.7499    0.4999
   Yb14   Yb 1.0000      0.7499    0.2502   -0.0000
    O15    O 1.0000      0.8751    0.8748    0.3753
    O16    O 1.0000      0.9144    0.6253    0.6251
   Sn17   Sn 1.0000      0.2497    0.5000    0.7504
   Yb18   Yb 1.0000      0.7505    0.0001    0.2501
    O19    O 1.0000      0.1254    0.1248    0.6252
    O20    O 1.0000      0.0852    0.3754    0.3755
   Sn21   Sn 1.0000      0.7497    0.5002    0.2502
   Yb22   Yb 1.0000      0.2502   -0.0003    0.7503
    O23    O 1.0000      0.8751    0.3749    0.8750
    O24    O 1.0000      0.8354    0.6251    0.1253
   Sn25   Sn 1.0000      0.5000    0.7501    0.2500
   Yb26   Yb 1.0000     -0.0002    0.2497    0.7500
    O27    O 1.0000      0.1246    0.6252    0.1246
    O28    O 1.0000      0.1644    0.3744    0.8752
   Sn29   Sn 1.0000      0.4998    0.2498    0.7499
   Yb30   Yb 1.0000     -0.0004    0.7501    0.2496
    O31    O 1.0000      0.1248    0.3353    0.1243
    O32    O 1.0000      0.8749    0.6647    0.8751
    O33    O 1.0000      0.6256    0.4151    0.1245
    O34    O 1.0000      0.3751    0.5852    0.8750
    O35    O 1.0000      0.6251    0.9153    0.6243
    O36    O 1.0000      0.3753    0.0857    0.3751
    O37    O 1.0000      0.1250    0.8346    0.6250
    O38    O 1.0000      0.8747    0.1645    0.3755
    O39    O 1.0000      0.1254    0.1247    0.3353
    O40    O 1.0000      0.8747    0.8741    0.6652
    O41    O 1.0000      0.1244    0.6256    0.4147
    O42    O 1.0000      0.8751    0.3750    0.5848
    O43    O 1.0000      0.6251    0.6249    0.9155
    O44    O 1.0000      0.3752    0.3747    0.0853
    O45    O 1.0000      0.6250    0.1249    0.8355
    O46    O 1.0000      0.3749    0.8754    0.1653
    O47    O 1.0000      0.8753    0.5856    0.3752
    O48    O 1.0000      0.1247    0.4144    0.6252
    O49    O 1.0000      0.3753    0.1646    0.8752
    O50    O 1.0000      0.6250    0.8353    0.1250
    O51    O 1.0000      0.1647    0.8750    0.3753
    O52    O 1.0000      0.8353    0.1248    0.6248
    O53    O 1.0000      0.5846    0.3742    0.8750
    O54    O 1.0000      0.4157    0.6247    0.1252
    O55    O 1.0000      0.8743    0.3749    0.1653
    O56    O 1.0000      0.1246    0.6246    0.8358
    O57    O 1.0000      0.3753    0.8745    0.5853
    O58    O 1.0000      0.6248    0.1250    0.4138
    O59    O 1.0000      0.3350    0.6255    0.6251
   Sn60   Sn 1.0000     -0.0003    0.5003    0.5001
   Yb61   Yb 1.0000      0.5002   -0.0001    0.0001
    O62    O 1.0000      0.6646    0.3751    0.3752
   Sn63   Sn 1.0000      0.7499    0.7501   -0.0003
   Yb64   Yb 1.0000      0.2501    0.2502    0.5000
   Sn65   Sn 1.0000      0.2504    0.2499   -0.0000
   Yb66   Yb 1.0000      0.7501    0.7497    0.4999
    O67    O 1.0000      0.9146    0.1251    0.1255
   Sn68   Sn 1.0000      0.2503    0.0002    0.2501
   Yb69   Yb 1.0000      0.7498    0.4995    0.7499
    O70    O 1.0000      0.0852    0.8749    0.8749
   Sn71   Sn 1.0000      0.7502   -0.0001    0.7501
   Yb72   Yb 1.0000      0.2496    0.4999    0.2498
    O73    O 1.0000      0.1256    0.1251    0.9153
    O74    O 1.0000      0.8748    0.8746    0.0856
    O75    O 1.0000      0.6252    0.6247    0.3347
    O76    O 1.0000      0.3751    0.3751    0.6642
    O77    O 1.0000      0.8748    0.0860    0.8750
    O78    O 1.0000      0.1251    0.9158    0.1247
    O79    O 1.0000      0.3747    0.6646    0.3750
    O80    O 1.0000      0.6249    0.3350    0.6250
   Sn81   Sn 1.0000      0.4999    0.0003    0.4997
   Yb82   Yb 1.0000     -0.0006    0.4997    0.0005
   Sn83   Sn 1.0000     -0.0000    0.7499    0.7500
   Yb84   Yb 1.0000      0.5003    0.2502    0.2506
   Sn85   Sn 1.0000      0.0005    0.2499    0.2500
   Yb86   Yb 1.0000      0.5006    0.7496    0.7505
   Sn87   Sn 1.0000      0.4999    0.5001   -0.0003
   Yb88   Yb 1.0000      0.0002    0.0001    0.5000

loop_
_atom_site_aniso_label
_atom_site_aniso_U_11
_atom_site_aniso_U_22
_atom_site_aniso_U_33
_atom_site_aniso_U_23
_atom_site_aniso_U_13
_atom_site_aniso_U_12
    O1      0.0238     0.0178     0.0184    -0.0010     0.0025     0.0018
    O2      0.0237     0.0137     0.0142     0.0059     0.0002    -0.0000
   Sn3      0.0069     0.0060     0.0066     0.0002     0.0004     0.0009
   Yb4      0.0249     0.0209     0.0204    -0.0026     0.0009    -0.0015
    O5      0.0264     0.0190     0.0227     0.0000     0.0022    -0.0003
    O6      0.0228     0.0165     0.0132     0.0061     0.0003    -0.0001
    O7      0.0245     0.0187     0.0184    -0.0033     0.0022     0.0001
    O8      0.0225     0.0129     0.0141    -0.0058     0.0014    -0.0004
   Sn9      0.0069     0.0067     0.0063    -0.0006    -0.0007     0.0007
   Yb10     0.0275     0.0175     0.0196     0.0014     0.0045    -0.0027
    O11     0.0263     0.0172     0.0197     0.0005     0.0007    -0.0006
    O12     0.0232     0.0154     0.0157    -0.0070     0.0014    -0.0002
   Sn13     0.0070     0.0059     0.0056    -0.0001    -0.0008     0.0007
   Yb14     0.0289     0.0188     0.0218     0.0008     0.0067     0.0001
    O15     0.0222     0.0167     0.0195    -0.0008     0.0003     0.0006
    O16     0.0238     0.0156     0.0143    -0.0066     0.0007    -0.0006
   Sn17     0.0068     0.0062     0.0063    -0.0007     0.0010    -0.0001
   Yb18     0.0248     0.0193     0.0201     0.0017    -0.0008     0.0030
    O19     0.0253     0.0154     0.0179    -0.0011     0.0022    -0.0003
    O20     0.0246     0.0153     0.0142    -0.0063     0.0010     0.0007
   Sn21     0.0059     0.0057     0.0060    -0.0004     0.0003    -0.0007
   Yb22     0.0256     0.0192     0.0196     0.0014     0.0012     0.0025
    O23     0.0240     0.0181     0.0208    -0.0015     0.0028     0.0012
    O24     0.0253     0.0118     0.0134     0.0050     0.0014     0.0003
   Sn25     0.0063     0.0060     0.0068     0.0004    -0.0004    -0.0000
   Yb26     0.0292     0.0190     0.0233    -0.0029     0.0069     0.0040
    O27     0.0215     0.0181     0.0176    -0.0007     0.0029     0.0010
    O28     0.0267     0.0144     0.0161     0.0062     0.0021     0.0021
   Sn29     0.0062     0.0065     0.0058     0.0006    -0.0001    -0.0003
   Yb30     0.0252     0.0199     0.0214    -0.0031     0.0050     0.0025
    O31     0.0169     0.0230     0.0158    -0.0002     0.0071     0.0004
    O32     0.0165     0.0217     0.0146     0.0004     0.0074     0.0009
    O33     0.0161     0.0208     0.0143     0.0003    -0.0060    -0.0004
    O34     0.0142     0.0211     0.0128     0.0007    -0.0041    -0.0001
    O35     0.0161     0.0216     0.0130     0.0002    -0.0051     0.0005
    O36     0.0149     0.0225     0.0140    -0.0006    -0.0049     0.0001
    O37     0.0165     0.0227     0.0134    -0.0011     0.0058    -0.0010
    O38     0.0164     0.0202     0.0156    -0.0004     0.0070    -0.0003
    O39     0.0167     0.0144     0.0233     0.0001     0.0020     0.0066
    O40     0.0167     0.0148     0.0209     0.0010     0.0012     0.0069
    O41     0.0157     0.0132     0.0219    -0.0013     0.0005    -0.0060
    O42     0.0160     0.0139     0.0238    -0.0019     0.0016    -0.0067
    O43     0.0170     0.0142     0.0222    -0.0007    -0.0003    -0.0076
    O44     0.0160     0.0153     0.0233    -0.0012     0.0025    -0.0068
    O45     0.0158     0.0142     0.0228    -0.0002     0.0007     0.0068
    O46     0.0154     0.0132     0.0211    -0.0010     0.0008     0.0052
    O47     0.0145     0.0210     0.0142     0.0001    -0.0056     0.0016
    O48     0.0173     0.0223     0.0135    -0.0005    -0.0048     0.0015
    O49     0.0184     0.0204     0.0174    -0.0020     0.0091    -0.0009
    O50     0.0185     0.0205     0.0156     0.0003     0.0078     0.0000
    O51     0.0233     0.0156     0.0146     0.0056    -0.0003    -0.0001
    O52     0.0270     0.0158     0.0155     0.0069     0.0011     0.0004
    O53     0.0263     0.0154     0.0155    -0.0064     0.0009    -0.0019
    O54     0.0243     0.0138     0.0139    -0.0059     0.0013    -0.0002
    O55     0.0153     0.0136     0.0193    -0.0003     0.0003     0.0056
    O56     0.0155     0.0134     0.0209    -0.0005     0.0008     0.0060
    O57     0.0165     0.0148     0.0215    -0.0023     0.0013    -0.0062
    O58     0.0150     0.0144     0.0195     0.0006     0.0001    -0.0057
    O59     0.0234     0.0141     0.0139     0.0061     0.0017     0.0023
   Sn60     0.0062     0.0057     0.0069     0.0006     0.0004     0.0003
   Yb61     0.0283     0.0212     0.0201    -0.0037     0.0004    -0.0024
    O62     0.0247     0.0147     0.0153     0.0068     0.0020    -0.0006
   Sn63     0.0067     0.0059     0.0068    -0.0006    -0.0003     0.0004
   Yb64     0.0273     0.0183     0.0198     0.0000     0.0061    -0.0022
   Sn65     0.0064     0.0060     0.0059    -0.0001     0.0000     0.0005
   Yb66     0.0247     0.0190     0.0223     0.0040     0.0056    -0.0015
    O67     0.0218     0.0138     0.0146    -0.0058    -0.0002    -0.0004
   Sn68     0.0073     0.0061     0.0063    -0.0007     0.0008    -0.0004
   Yb69     0.0283     0.0198     0.0194     0.0032     0.0000     0.0010
    O70     0.0233     0.0164     0.0138    -0.0064     0.0019    -0.0004
   Sn71     0.0061     0.0054     0.0058    -0.0006     0.0001     0.0001
   Yb72     0.0231     0.0194     0.0176     0.0014    -0.0005     0.0038
    O73     0.0153     0.0145     0.0226    -0.0010     0.0013    -0.0061
    O74     0.0153     0.0144     0.0220    -0.0013     0.0012    -0.0066
    O75     0.0136     0.0125     0.0215    -0.0009     0.0002     0.0058
    O76     0.0153     0.0143     0.0214    -0.0012    -0.0003     0.0053
    O77     0.0161     0.0230     0.0146    -0.0013    -0.0051     0.0014
    O78     0.0158     0.0216     0.0135     0.0010    -0.0053     0.0003
    O79     0.0157     0.0215     0.0152    -0.0001     0.0066     0.0013
    O80     0.0179     0.0225     0.0153     0.0008     0.0075     0.0006
   Sn81     0.0071     0.0059     0.0066     0.0004     0.0007     0.0009
   Yb82     0.0232     0.0194     0.0212    -0.0010    -0.0004    -0.0029
   Sn83     0.0059     0.0065     0.0057     0.0005    -0.0006    -0.0007
   Yb84     0.0262     0.0165     0.0228    -0.0034     0.0040     0.0033
   Sn85     0.0066     0.0059     0.0068     0.0004    -0.0004    -0.0002
   Yb86     0.0272     0.0173     0.0229    -0.0039     0.0054     0.0026
   Sn87     0.0065     0.0064     0.0063     0.0005    -0.0001     0.0003
   Yb88     0.0261     0.0196     0.0229    -0.0023     0.0006    -0.0040
