data_taken_from_RMCProfile_configurations
_audit_creation_method  'by_Configurations_averaging'
_publ_section_comment
;
  (Configuration used: ytso_0p8_Sn_only.cif )
;
_cell_length_a                     10.2665
_cell_length_b                     10.2665
_cell_length_c                     10.2665
_cell_angle_alpha                  90.0000
_cell_angle_beta                   90.0000
_cell_angle_gamma                  90.0000

_symmetry_space_group_name_H-M    'P 1'
_symmetry_Int_Tables_number         1
_symmetry_cell_setting             triclinic
loop_
_symmetry_equiv_pos_as_xyz
'+x,+y,+z'

loop_
_atom_site_label
_atom_site_type_symbol
_atom_site_occupancy
_atom_site_fract_x
_atom_site_fract_y
_atom_site_fract_z
    O1     O 1.0000      0.3766    0.3756    0.3749
    O2     O 1.0000      0.3345    0.1253    0.1251
   Ti3    Ti 1.0000     -0.0004    0.0016    0.0001
   Yb4    Yb 1.0000      0.5000    0.4982    0.5015
    O5     O 1.0000      0.6255    0.6247    0.6260
    O6     O 1.0000      0.6645    0.8760    0.8752
    O7     O 1.0000      0.3746    0.8754    0.8748
    O8     O 1.0000      0.4144    0.1247    0.6245
   Ti9    Ti 1.0000      0.7504    0.2497    0.4998
   Yb10   Yb 1.0000      0.2498    0.7505    0.0007
    O11    O 1.0000      0.6248    0.1246    0.1253
    O12    O 1.0000      0.5848    0.8734    0.3761
   Ti13   Ti 1.0000      0.2508    0.7493    0.4998
   Yb14   Yb 1.0000      0.7505    0.2513    0.0002
    O15    O 1.0000      0.8750    0.8749    0.3750
    O16    O 1.0000      0.9154    0.6247    0.6243
   Ti17   Ti 1.0000      0.2500    0.4996    0.7497
   Yb18   Yb 1.0000      0.7492   -0.0006    0.2498
    O19    O 1.0000      0.1245    0.1250    0.6250
    O20    O 1.0000      0.0849    0.3750    0.3752
   Ti21   Ti 1.0000      0.7495    0.4995    0.2497
   Yb22   Yb 1.0000      0.2495    0.0003    0.7498
    O23    O 1.0000      0.8747    0.3761    0.8747
    O24    O 1.0000      0.8346    0.6245    0.1251
   Ti25   Ti 1.0000      0.4998    0.7495    0.2502
   Yb26   Yb 1.0000     -0.0002    0.2507    0.7495
    O27    O 1.0000      0.1249    0.6249    0.1261
    O28    O 1.0000      0.1649    0.3757    0.8747
   Ti29   Ti 1.0000      0.4994    0.2505    0.7511
   Yb30   Yb 1.0000     -0.0002    0.7502    0.2507
    O31    O 1.0000      0.1249    0.3348    0.1247
    O32    O 1.0000      0.8755    0.6665    0.8746
    O33    O 1.0000      0.6254    0.4154    0.1251
    O34    O 1.0000      0.3752    0.5853    0.8752
    O35    O 1.0000      0.6249    0.9143    0.6251
    O36    O 1.0000      0.3752    0.0855    0.3755
    O37    O 1.0000      0.1243    0.8355    0.6249
    O38    O 1.0000      0.8752    0.1653    0.3756
    O39    O 1.0000      0.1261    0.1257    0.3356
    O40    O 1.0000      0.8747    0.8746    0.6657
    O41    O 1.0000      0.1246    0.6244    0.4151
    O42    O 1.0000      0.8757    0.3753    0.5853
    O43    O 1.0000      0.6248    0.6251    0.9145
    O44    O 1.0000      0.3757    0.3753    0.0848
    O45    O 1.0000      0.6254    0.1258    0.8346
    O46    O 1.0000      0.3741    0.8747    0.1653
    O47    O 1.0000      0.8756    0.5852    0.3755
    O48    O 1.0000      0.1251    0.4148    0.6251
    O49    O 1.0000      0.3750    0.1658    0.8754
    O50    O 1.0000      0.6246    0.8339    0.1261
    O51    O 1.0000      0.1657    0.8749    0.3753
    O52    O 1.0000      0.8351    0.1253    0.6256
    O53    O 1.0000      0.5864    0.3765    0.8752
    O54    O 1.0000      0.4154    0.6254    0.1243
    O55    O 1.0000      0.8749    0.3749    0.1659
    O56    O 1.0000      0.1261    0.6265    0.8353
    O57    O 1.0000      0.3744    0.8751    0.5845
    O58    O 1.0000      0.6245    0.1250    0.4158
    O59    O 1.0000      0.3359    0.6255    0.6254
   Ti60   Ti 1.0000      0.0001    0.5005    0.5001
   Yb61   Yb 1.0000      0.5000    0.0009    0.0005
    O62    O 1.0000      0.6655    0.3746    0.3752
   Ti63   Ti 1.0000      0.7499    0.7501    0.0003
   Yb64   Yb 1.0000      0.2499    0.2510    0.5001
   Ti65   Ti 1.0000      0.2497    0.2504    0.0006
   Yb66   Yb 1.0000      0.7510    0.7486    0.4993
    O67    O 1.0000      0.9154    0.1250    0.1250
   Ti68   Ti 1.0000      0.2498   -0.0002    0.2500
   Yb69   Yb 1.0000      0.7507    0.5010    0.7499
    O70    O 1.0000      0.0842    0.8756    0.8755
   Ti71   Ti 1.0000      0.7499    0.0002    0.7490
   Yb72   Yb 1.0000      0.2506    0.4999    0.2495
    O73    O 1.0000      0.1242    0.1257    0.9152
    O74    O 1.0000      0.8756    0.8751    0.0835
    O75    O 1.0000      0.6258    0.6244    0.3350
    O76    O 1.0000      0.3738    0.3750    0.6662
    O77    O 1.0000      0.8759    0.0853    0.8752
    O78    O 1.0000      0.1252    0.9163    0.1246
    O79    O 1.0000      0.3749    0.6650    0.3754
    O80    O 1.0000      0.6248    0.3336    0.6254
   Ti81   Ti 1.0000      0.4992   -0.0004    0.5002
   Yb82   Yb 1.0000     -0.0000    0.4999   -0.0002
   Ti83   Ti 1.0000      0.0004    0.7505    0.7498
   Yb84   Yb 1.0000      0.5005    0.2500    0.2504
   Ti85   Ti 1.0000     -0.0001    0.2505    0.2510
   Yb86   Yb 1.0000      0.4996    0.7501    0.7496
   Ti87   Ti 1.0000      0.5003    0.4996    0.0008
   Yb88   Yb 1.0000     -0.0007   -0.0004    0.5009

loop_
_atom_site_aniso_label
_atom_site_aniso_U_11
_atom_site_aniso_U_22
_atom_site_aniso_U_33
_atom_site_aniso_U_23
_atom_site_aniso_U_13
_atom_site_aniso_U_12
    O1      0.0228     0.0226     0.0303    -0.0043    -0.0073     0.0005
    O2      0.0436     0.0241     0.0331    -0.0026    -0.0094    -0.0005
   Ti3      0.0253     0.0262     0.0241     0.0029    -0.0011     0.0031
   Yb4      0.0294     0.0308     0.0498    -0.0044    -0.0116     0.0004
    O5      0.0238     0.0267     0.0332    -0.0043    -0.0073     0.0038
    O6      0.0387     0.0229     0.0299     0.0001    -0.0067     0.0011
    O7      0.0235     0.0273     0.0307    -0.0041    -0.0066     0.0026
    O8      0.0326     0.0245     0.0240    -0.0037    -0.0066     0.0009
   Ti9      0.0253     0.0268     0.0297    -0.0050    -0.0057     0.0025
   Yb10     0.0345     0.0313     0.0428    -0.0013    -0.0033    -0.0042
    O11     0.0245     0.0260     0.0338    -0.0023    -0.0084    -0.0007
    O12     0.0410     0.0244     0.0322    -0.0023    -0.0067     0.0037
   Ti13     0.0223     0.0231     0.0267    -0.0024    -0.0059     0.0029
   Yb14     0.0329     0.0338     0.0452    -0.0010    -0.0023    -0.0030
    O15     0.0250     0.0236     0.0342    -0.0036    -0.0055     0.0012
    O16     0.0395     0.0243     0.0254    -0.0012    -0.0047     0.0010
   Ti17     0.0229     0.0260     0.0291    -0.0029    -0.0009    -0.0018
   Yb18     0.0319     0.0316     0.0431     0.0013    -0.0101     0.0028
    O19     0.0258     0.0237     0.0337    -0.0035    -0.0073    -0.0004
    O20     0.0435     0.0214     0.0283    -0.0041    -0.0049     0.0005
   Ti21     0.0218     0.0258     0.0232    -0.0033    -0.0014    -0.0030
   Yb22     0.0280     0.0345     0.0444     0.0004    -0.0119     0.0032
    O23     0.0220     0.0260     0.0295    -0.0020    -0.0054     0.0017
    O24     0.0444     0.0224     0.0306    -0.0006    -0.0103     0.0024
   Ti25     0.0258     0.0289     0.0255     0.0021    -0.0050    -0.0010
   Yb26     0.0300     0.0290     0.0458    -0.0037    -0.0057     0.0033
    O27     0.0241     0.0251     0.0291    -0.0014    -0.0059     0.0012
    O28     0.0391     0.0219     0.0245    -0.0008    -0.0057     0.0002
   Ti29     0.0248     0.0225     0.0285     0.0025    -0.0039    -0.0028
   Yb30     0.0285     0.0302     0.0435    -0.0068    -0.0071     0.0028
    O31     0.0220     0.0385     0.0267    -0.0015    -0.0053     0.0014
    O32     0.0198     0.0423     0.0289    -0.0016    -0.0041     0.0017
    O33     0.0198     0.0404     0.0277    -0.0019    -0.0064    -0.0007
    O34     0.0192     0.0408     0.0290    -0.0016    -0.0070    -0.0017
    O35     0.0229     0.0389     0.0260    -0.0013    -0.0052    -0.0002
    O36     0.0237     0.0374     0.0288    -0.0028    -0.0064    -0.0024
    O37     0.0229     0.0412     0.0278    -0.0036    -0.0020     0.0012
    O38     0.0231     0.0393     0.0308    -0.0005    -0.0029    -0.0014
    O39     0.0247     0.0239     0.0508    -0.0043    -0.0055     0.0018
    O40     0.0262     0.0223     0.0520    -0.0030    -0.0101     0.0038
    O41     0.0213     0.0229     0.0462    -0.0053    -0.0066     0.0011
    O42     0.0221     0.0193     0.0414    -0.0013    -0.0047    -0.0009
    O43     0.0209     0.0228     0.0448    -0.0023    -0.0047     0.0019
    O44     0.0228     0.0209     0.0487    -0.0037    -0.0084     0.0001
    O45     0.0253     0.0227     0.0533    -0.0040    -0.0062     0.0029
    O46     0.0239     0.0244     0.0511    -0.0037    -0.0041     0.0014
    O47     0.0212     0.0407     0.0276    -0.0023    -0.0081     0.0000
    O48     0.0207     0.0371     0.0275    -0.0018    -0.0061     0.0009
    O49     0.0220     0.0428     0.0295    -0.0016    -0.0039     0.0010
    O50     0.0233     0.0437     0.0269    -0.0038    -0.0040    -0.0002
    O51     0.0380     0.0199     0.0255     0.0003    -0.0046    -0.0013
    O52     0.0409     0.0222     0.0316    -0.0017    -0.0087     0.0008
    O53     0.0367     0.0244     0.0315    -0.0033    -0.0064     0.0018
    O54     0.0370     0.0228     0.0275    -0.0037    -0.0062     0.0011
    O55     0.0240     0.0211     0.0510    -0.0007    -0.0075     0.0025
    O56     0.0229     0.0188     0.0510    -0.0055    -0.0082     0.0008
    O57     0.0240     0.0203     0.0446     0.0016    -0.0050    -0.0011
    O58     0.0211     0.0209     0.0460    -0.0041    -0.0036    -0.0002
    O59     0.0416     0.0222     0.0279     0.0000    -0.0083     0.0003
   Ti60     0.0224     0.0260     0.0233    -0.0001    -0.0010     0.0019
   Yb61     0.0336     0.0350     0.0406    -0.0043    -0.0099    -0.0022
    O62     0.0419     0.0217     0.0259    -0.0008    -0.0074     0.0002
   Ti63     0.0246     0.0224     0.0250    -0.0028    -0.0067     0.0002
   Yb64     0.0343     0.0355     0.0413    -0.0006    -0.0071    -0.0043
   Ti65     0.0236     0.0233     0.0266    -0.0026    -0.0069     0.0029
   Yb66     0.0313     0.0346     0.0402     0.0024    -0.0057    -0.0061
    O67     0.0423     0.0229     0.0258    -0.0028    -0.0067    -0.0010
   Ti68     0.0228     0.0263     0.0282    -0.0010    -0.0005    -0.0017
   Yb69     0.0243     0.0295     0.0435    -0.0003    -0.0101     0.0020
    O70     0.0391     0.0206     0.0291    -0.0042    -0.0057    -0.0027
   Ti71     0.0208     0.0214     0.0215    -0.0020    -0.0021    -0.0012
   Yb72     0.0343     0.0331     0.0413    -0.0007    -0.0114     0.0029
    O73     0.0188     0.0205     0.0477    -0.0030    -0.0058    -0.0001
    O74     0.0222     0.0211     0.0435    -0.0001    -0.0082    -0.0010
    O75     0.0240     0.0242     0.0517    -0.0033    -0.0054     0.0012
    O76     0.0253     0.0220     0.0547    -0.0056    -0.0079     0.0011
    O77     0.0242     0.0442     0.0269    -0.0034    -0.0056     0.0011
    O78     0.0193     0.0430     0.0262    -0.0028    -0.0050     0.0023
    O79     0.0244     0.0370     0.0279    -0.0022    -0.0040     0.0009
    O80     0.0215     0.0428     0.0246    -0.0034    -0.0022     0.0007
   Ti81     0.0230     0.0246     0.0259     0.0010     0.0006     0.0015
   Yb82     0.0351     0.0372     0.0500    -0.0038    -0.0134    -0.0024
   Ti83     0.0228     0.0220     0.0304    -0.0005    -0.0050    -0.0012
   Yb84     0.0307     0.0324     0.0447    -0.0037    -0.0043     0.0038
   Ti85     0.0208     0.0226     0.0276    -0.0005    -0.0042    -0.0022
   Yb86     0.0336     0.0283     0.0428    -0.0061    -0.0050     0.0030
   Ti87     0.0227     0.0215     0.0218     0.0011    -0.0005     0.0035
   Yb88     0.0359     0.0315     0.0521    -0.0044    -0.0131    -0.0037
